117

 C         -4.069432        -0.934350        -0.084726
 C         -2.940229        -1.728290         0.113981
 C         -1.643643        -1.124612         0.216417
 C         -1.532706         0.224921         0.072393
 C         -2.671592         1.049729        -0.159529
 C         -3.901576         0.468543        -0.209377
 H         -2.987747        -2.812238         0.160841
 H         -0.766003        -1.750516         0.348293
 H         -2.514814         2.116763        -0.287035
 H         -4.781138         1.085284        -0.368746
 O         -5.141973        -1.429742         0.041534
 C         -0.201430         0.924720        -0.058886
 H         -0.262109         2.006554        -0.160627
 C          2.182855         1.383282        -0.054474
 C          2.738887        -0.742202         0.221615
 C          1.057943         0.472293         0.010635
 N          1.428987        -0.838737         0.132156
 N          3.173864         0.541560         0.060741
 O          2.242446         2.624551        -0.168095
 C          4.570625         0.910538        -0.039099
 H          4.689956         1.860968         0.495350
 H          5.181573         0.092238         0.361300
 H          4.787914         1.163003        -1.084206
 C          3.646901        -1.911275        -0.017418
 H          4.311837        -2.151914         0.821116
 H          3.036748        -2.799892        -0.220547
 H          4.278919        -1.650569        -0.875191
 O          1.000634         5.634574         2.742991
 H          0.866151         6.245253         3.467709
 H          0.281991         5.818724         2.138117
 O         -4.483569        -1.410974        -4.082573
 H         -5.346670        -1.156696        -3.756029
 H         -3.991077        -0.591108        -4.121354
 O          3.876193        -1.732633        -3.908620
 H          4.147559        -1.926109        -4.805926
 H          4.633384        -1.969444        -3.373069
 O          1.721938         3.596339        -5.004312
 H          0.835799         3.936892        -5.126835
 H          2.247968         4.367747        -4.793472
 O          0.647788         2.755706         4.942717
 H          1.132488         2.781968         4.117727
 H          0.237571         3.618151         5.007055
 O         -2.109105        -5.133683        -1.595678
 H         -2.567673        -4.553673        -2.203573
 H         -2.807761        -5.594639        -1.131317
 O         -1.583277        -1.542150        -4.877162
 H         -0.934043        -1.596212        -4.175876
 H         -2.414321        -1.400516        -4.423797
 O         -0.933978        -4.468688         1.268799
 H         -1.264867        -4.602172         0.380583
 H         -0.994748        -5.331311         1.679190
 O         -1.492026         4.164365         2.468506
 H         -0.959880         4.442887         3.213808
 H         -1.512732         3.209532         2.532509
 O         -0.312487         6.085145        -2.198240
 H         -0.035813         5.581944        -1.432425
 H         -0.988372         5.545325        -2.608128
 O         -5.519494        -2.174882         2.702444
 H         -5.540615        -1.798637         1.822542
 H         -6.351047        -1.910545         3.095987
 O          2.199022         0.325457        -3.520159
 H          2.274604         0.616196        -2.611319
 H          2.751077        -0.455001        -3.568656
 O          0.950168         0.992299        -5.905899
 H          1.292522         0.396268        -5.239737
 H          1.200988         1.863686        -5.599299
 O         -3.123420        -2.490577         4.268505
 H         -2.542751        -2.928276         3.646032
 H         -3.897676        -2.262325         3.754053
 O         -1.223786         1.319503         2.690279
 H         -1.330971         0.798568         1.894434
 H         -1.194943         0.674321         3.396780
 O          3.421958         5.136584        -0.270813
 H          3.012725         4.285548        -0.427340
 H          3.040344         5.711493        -0.934198
 O          2.156751        -1.150737         3.966385
 H          1.751266        -1.765006         3.354433
 H          1.418800        -0.710172         4.387766
 O         -4.536649         3.246276        -3.025369
 H         -4.760607         3.474587        -2.123177
 H         -5.334656         3.425050        -3.522820
 O          2.120099         3.006530         2.561970
 H          1.820787         3.902039         2.404795
 H          2.405044         2.694981         1.702913
 O          3.657111         1.049241         3.656752
 H          2.985458         1.663958         3.361395
 H          3.174634         0.249200         3.865036
 O          0.918563        -2.882524         2.289110
 H          0.334491        -3.622917         2.125069
 H          0.821674        -2.325341         1.516846
 O         -3.127493         0.957101        -3.669023
 H         -2.343008         1.190083        -3.172501
 H         -3.627711         1.771439        -3.722542
 O          0.186519         4.423754         0.132124
 H          0.863822         3.760056         0.001753
 H         -0.309209         4.114371         0.890259
 O         -0.115588        -1.831764        -2.403444
 H         -0.073880        -1.624198        -1.469952
 H          0.605890        -2.444682        -2.544988
 O         -1.656142         3.916207        -3.597294
 H         -2.608901         3.825204        -3.583034
 H         -1.328561         3.028134        -3.455004
 O         -0.405795         1.032862        -2.979351
 H         -0.614888         0.273476        -2.435434
 H          0.484895         0.867936        -3.288710
 O         -1.639794         1.319947        -6.100044
 H         -1.920018         0.881434        -5.296668
 H         -0.689461         1.206588        -6.115809
 O          0.209129         0.007714         5.330641
 H          0.557103         0.854279         5.050509
 H         -0.706271         0.184834         5.547215
 O          2.083165        -3.762882        -2.745336
 H          2.571424        -3.059275        -3.172855
 H          1.716693        -4.273200        -3.467489
 O          2.234285        -5.876857        -1.259161
 H          3.123956        -6.008607        -1.586815
 H          2.019672        -4.976762        -1.504116
