117

 C         -4.069432        -0.934350        -0.084726
 C         -2.940229        -1.728290         0.113981
 C         -1.643643        -1.124612         0.216417
 C         -1.532706         0.224921         0.072393
 C         -2.671592         1.049729        -0.159529
 C         -3.901576         0.468543        -0.209377
 H         -2.987747        -2.812238         0.160841
 H         -0.766003        -1.750516         0.348293
 H         -2.514814         2.116763        -0.287035
 H         -4.781138         1.085284        -0.368746
 O         -5.141973        -1.429742         0.041534
 C         -0.201430         0.924720        -0.058886
 H         -0.262109         2.006554        -0.160627
 C          2.182855         1.383282        -0.054474
 C          2.738887        -0.742202         0.221615
 C          1.057943         0.472293         0.010635
 N          1.428987        -0.838737         0.132156
 N          3.173864         0.541560         0.060741
 O          2.242446         2.624551        -0.168095
 C          4.570625         0.910538        -0.039099
 H          4.689956         1.860968         0.495350
 H          5.181573         0.092238         0.361300
 H          4.787914         1.163003        -1.084206
 C          3.646901        -1.911275        -0.017418
 H          4.311837        -2.151914         0.821116
 H          3.036748        -2.799892        -0.220547
 H          4.278919        -1.650569        -0.875191
 O          0.420343         0.638003         4.701212
 H          0.341565         1.354451         4.071350
 H          0.505176        -0.147607         4.160978
 O          0.903840         3.133546        -3.260320
 H          0.780296         4.012553        -3.618527
 H          0.693368         2.547045        -3.986922
 O          2.869443         3.474330         2.498764
 H          2.074046         4.005936         2.529911
 H          2.844993         3.056937         1.637709
 O         -0.016034         2.553094         2.778454
 H          0.379697         3.168854         2.161633
 H         -0.957110         2.711789         2.704794
 O          3.843026         4.418952        -1.291269
 H          3.178499         3.938975        -0.797047
 H          4.487102         4.681870        -0.633795
 O          3.918744         2.394824        -3.287025
 H          4.189504         2.997195        -2.594155
 H          2.998857         2.209923        -3.097688
 O         -2.378709         4.564713         2.978292
 H         -2.928171         4.509928         3.760162
 H         -1.492068         4.689067         3.316874
 O         -1.264193        -0.174793        -5.867842
 H         -1.853894        -0.334615        -5.130997
 H         -1.724820         0.466939        -6.408430
 O          3.688936        -3.058828        -3.116837
 H          3.408588        -2.148511        -3.022172
 H          4.147069        -3.082220        -3.956955
 O          0.780269        -0.740789        -3.084367
 H          1.707454        -0.634240        -3.296992
 H          0.715312        -0.488937        -2.163181
 O         -0.082444        -2.405908        -4.974467
 H         -0.615227        -1.816453        -5.508243
 H          0.345243        -1.832410        -4.338531
 O          3.335344        -0.246520        -3.734117
 H          3.350364        -0.384000        -4.681274
 H          3.573921         0.673646        -3.621845
 O          1.572891        -5.382058         0.875896
 H          1.591886        -4.944721         1.727137
 H          1.036796        -4.811354         0.325325
 O         -1.888062         0.230214        -2.812522
 H         -1.006495        -0.127244        -2.706248
 H         -2.302844         0.102278        -1.959396
 O         -2.749429        -3.209560        -2.951491
 H         -2.783786        -3.480982        -2.034224
 H         -2.040166        -3.729927        -3.328842
 O          0.314918         4.798371        -0.734203
 H          0.913671         4.052167        -0.764315
 H         -0.434636         4.525519        -1.263306
 O          1.288423        -4.232546         3.269518
 H          0.810903        -4.410258         4.079842
 H          2.178588        -4.028164         3.555988
 O          0.895547         1.787059        -5.587876
 H          1.500602         1.604844        -6.306860
 H          0.407653         0.971596        -5.472926
 O         -2.418043        -0.802503         5.617111
 H         -2.993432        -1.150281         4.935783
 H         -1.877938        -0.153503         5.166203
 O         -2.744734         2.292969        -4.479820
 H         -3.496006         2.626586        -3.989389
 H         -2.344680         1.648465        -3.896037
 O         -2.240880         0.751740         2.940891
 H         -1.763312         0.899224         2.124552
 H         -2.808890         0.004203         2.754385
 O         -2.822494         4.754971        -2.180157
 H         -3.042781         4.808352        -1.250181
 H         -3.586884         4.344222        -2.584167
 O          0.857471        -1.398814         2.903404
 H          1.077840        -2.320581         3.037621
 H          0.864494        -1.286830         1.952803
 O         -3.798018        -1.092750        -4.863287
 H         -4.658349        -0.693664        -4.733698
 H         -3.583668        -1.480624        -4.014854
 O          0.831775        -5.807479        -1.911482
 H          0.521302        -5.486126        -2.757987
 H          0.175487        -5.503440        -1.284523
 O         -1.192151        -4.718446        -0.315447
 H         -1.088780        -4.183557         0.471598
 H         -1.982575        -5.233303        -0.153019
 O         -4.523682        -1.414005         3.769886
 H         -4.900179        -2.070707         3.184031
 H         -4.923033        -0.589221         3.493330
 O          3.519532        -2.798789         4.354637
 H          3.979461        -3.189103         5.097843
 H          4.216106        -2.537072         3.752541
 O         -1.110059        -3.486402         2.132219
 H         -0.451298        -3.711687         2.789116
 H         -1.835950        -3.119596         2.636963
 O          0.551965         5.286210         1.820883
 H          0.145095         6.152505         1.806030
 H          0.615285         5.035502         0.899271
