117

 C         -4.069432        -0.934350        -0.084726
 C         -2.940229        -1.728290         0.113981
 C         -1.643643        -1.124612         0.216417
 C         -1.532706         0.224921         0.072393
 C         -2.671592         1.049729        -0.159529
 C         -3.901576         0.468543        -0.209377
 H         -2.987747        -2.812238         0.160841
 H         -0.766003        -1.750516         0.348293
 H         -2.514814         2.116763        -0.287035
 H         -4.781138         1.085284        -0.368746
 O         -5.141973        -1.429742         0.041534
 C         -0.201430         0.924720        -0.058886
 H         -0.262109         2.006554        -0.160627
 C          2.182855         1.383282        -0.054474
 C          2.738887        -0.742202         0.221615
 C          1.057943         0.472293         0.010635
 N          1.428987        -0.838737         0.132156
 N          3.173864         0.541560         0.060741
 O          2.242446         2.624551        -0.168095
 C          4.570625         0.910538        -0.039099
 H          4.689956         1.860968         0.495350
 H          5.181573         0.092238         0.361300
 H          4.787914         1.163003        -1.084206
 C          3.646901        -1.911275        -0.017418
 H          4.311837        -2.151914         0.821116
 H          3.036748        -2.799892        -0.220547
 H          4.278919        -1.650569        -0.875191
 O         -2.288465         3.659571         2.073671
 H         -1.384351         3.553984         2.369745
 H         -2.815624         3.264960         2.768377
 O          2.887904         3.776114         4.095444
 H          3.340183         4.097434         4.875464
 H          2.244956         3.151707         4.431545
 O          1.203159        -0.628856         3.164261
 H          1.933702        -1.239419         3.263010
 H          0.994687        -0.653842         2.230373
 O          0.294334         2.858784         2.789112
 H          1.204765         3.131413         2.675007
 H          0.349033         1.930934         3.017880
 O         -1.041730         4.163125        -1.263479
 H         -0.921241         3.293723        -1.645384
 H         -1.582576         4.631268        -1.899530
 O          1.497792         1.107705        -3.277553
 H          2.053800         1.872000        -3.126100
 H          0.610873         1.416171        -3.091927
 O          1.117191        -2.595867        -1.941940
 H          1.103612        -1.847963        -1.344707
 H          1.145112        -3.360826        -1.367231
 O         -3.100908        -3.069148         3.152895
 H         -3.477895        -2.431108         2.547077
 H         -2.557245        -3.631311         2.600956
 O          1.107467        -5.318129         0.316248
 H          0.392001        -5.050443         0.893038
 H          1.901416        -5.053025         0.780571
 O          4.302245         0.407817         3.769865
 H          4.324605         1.099158         4.431515
 H          4.236884        -0.403604         4.273407
 O          3.216714        -1.542352        -3.699634
 H          2.901649        -0.639861        -3.749392
 H          2.621787        -1.970119        -3.083753
 O         -2.870438        -1.116006        -3.173786
 H         -3.168174        -0.494132        -3.837758
 H         -2.930547        -0.633270        -2.349418
 O         -3.952859        -3.636337        -3.431669
 H         -3.702508        -4.376074        -2.878184
 H         -3.186112        -3.063354        -3.426898
 O         -1.077685        -4.761428         1.961639
 H         -0.544459        -4.698761         2.754087
 H         -1.612382        -5.544246         2.094027
 O         -5.086625        -0.582557         3.287334
 H         -5.627388        -1.371516         3.324101
 H         -5.625241         0.055388         2.819199
 O         -4.263391         2.365412         3.717134
 H         -5.153679         2.554147         4.013783
 H         -4.286757         1.443494         3.460714
 O          3.445199         3.416980        -2.553978
 H          3.347816         3.281180        -1.611477
 H          4.385009         3.328875        -2.712813
 O         -1.130524         6.398356         0.611279
 H         -1.692027         5.625180         0.555210
 H         -0.291981         6.062905         0.928375
 O         -0.947320        -3.742688        -3.389741
 H         -1.297698        -3.084157        -2.789906
 H         -0.000676        -3.713535        -3.250996
 O         -4.293144         2.054970        -3.173657
 H         -5.025655         2.582091        -2.854593
 H         -4.578265         1.743867        -4.032816
 O          3.562515         4.152562         1.507612
 H          3.497472         3.989089         2.448505
 H          3.098903         3.418599         1.104380
 O         -1.523564         1.703265         5.543020
 H         -1.772485         2.559952         5.196093
 H         -1.976876         1.075885         4.979876
 O          1.381173         1.402682         5.119440
 H          1.274081         0.762013         4.416370
 H          0.534999         1.411015         5.566822
 O          3.119144        -2.929418         3.637800
 H          3.745055        -3.550877         3.265974
 H          3.561443        -2.577138         4.410135
 O          0.602252        -4.381485         4.034742
 H          1.183088        -3.815432         3.526367
 H          1.191625        -4.895782         4.586441
 O         -1.534199         2.265521        -3.506214
 H         -1.544278         2.956689        -4.168344
 H         -2.390666         2.326600        -3.083171
 O         -0.250508        -1.274181         5.506079
 H          0.596273        -1.161628         5.074196
 H         -0.894232        -1.127485         4.813019
 O         -0.975926        -0.168670        -5.067614
 H         -1.170041        -0.897603        -4.478372
 H         -0.785443         0.566306        -4.484725
 O         -2.221258        -0.146657         3.460230
 H         -3.157396        -0.338575         3.515411
 H         -1.980130        -0.385589         2.565243
 O          1.199729         5.429326        -0.540167
 H          0.334216         5.146638        -0.835474
 H          1.722583         4.627623        -0.528803
