117

 C         -4.069432        -0.934350        -0.084726
 C         -2.940229        -1.728290         0.113981
 C         -1.643643        -1.124612         0.216417
 C         -1.532706         0.224921         0.072393
 C         -2.671592         1.049729        -0.159529
 C         -3.901576         0.468543        -0.209377
 H         -2.987747        -2.812238         0.160841
 H         -0.766003        -1.750516         0.348293
 H         -2.514814         2.116763        -0.287035
 H         -4.781138         1.085284        -0.368746
 O         -5.141973        -1.429742         0.041534
 C         -0.201430         0.924720        -0.058886
 H         -0.262109         2.006554        -0.160627
 C          2.182855         1.383282        -0.054474
 C          2.738887        -0.742202         0.221615
 C          1.057943         0.472293         0.010635
 N          1.428987        -0.838737         0.132156
 N          3.173864         0.541560         0.060741
 O          2.242446         2.624551        -0.168095
 C          4.570625         0.910538        -0.039099
 H          4.689956         1.860968         0.495350
 H          5.181573         0.092238         0.361300
 H          4.787914         1.163003        -1.084206
 C          3.646901        -1.911275        -0.017418
 H          4.311837        -2.151914         0.821116
 H          3.036748        -2.799892        -0.220547
 H          4.278919        -1.650569        -0.875191
 O         -1.020407        -1.154777         4.689096
 H         -1.349938        -0.364692         4.260836
 H         -0.321818        -1.465686         4.113300
 O          0.244842         4.104668        -1.107820
 H          0.788873         3.402817        -0.750513
 H          0.233094         4.771674        -0.421383
 O          4.298963         4.098042         2.325964
 H          3.714387         4.816203         2.083582
 H          3.941974         3.334893         1.871660
 O          1.230293         0.250798         5.783901
 H          1.958879        -0.062522         5.247971
 H          0.452739        -0.134324         5.379766
 O          3.357950         5.555052        -0.004515
 H          3.007594         4.720044        -0.314749
 H          2.602319         6.142527         0.006619
 O          3.230394         3.641663        -2.800282
 H          3.693547         2.858559        -3.097714
 H          2.768821         3.361270        -2.009991
 O         -2.060307         3.898873         3.200775
 H         -1.844668         4.787175         2.916788
 H         -1.651747         3.817103         4.062532
 O          1.926448        -1.145335        -3.715488
 H          1.683036        -1.038354        -4.635019
 H          2.431859        -0.359241        -3.508497
 O         -0.731086        -1.683439        -2.614803
 H         -0.830804        -0.935930        -2.025295
 H          0.212537        -1.748363        -2.761761
 O          0.227491         0.755059        -6.221369
 H          0.300018        -0.194186        -6.320889
 H         -0.508668         0.877486        -5.621941
 O          3.838449         1.573361        -4.161289
 H          4.730352         1.605731        -4.507256
 H          3.285409         1.462832        -4.934698
 O          1.467679        -4.956097        -1.600409
 H          0.663234        -4.817794        -1.100433
 H          1.170318        -5.090119        -2.500323
 O          0.431869         2.788405        -3.503093
 H          0.475463         3.468600        -2.831032
 H          1.312049         2.765967        -3.878609
 O         -3.649557        -1.653579        -3.564028
 H         -2.852746        -2.173950        -3.461366
 H         -3.394178        -0.936441        -4.144309
 O          3.156158        -3.494941        -3.763003
 H          2.792039        -3.950409        -3.003926
 H          2.596492        -2.726119        -3.872178
 O         -1.315097        -3.824571         5.356541
 H         -1.514525        -2.900758         5.508293
 H         -1.008277        -3.857662         4.450451
 O         -5.123537        -0.889037         4.429062
 H         -5.647367        -1.077527         3.650406
 H         -4.330054        -0.475141         4.089495
 O         -6.063476        -1.878799        -2.458046
 H         -5.722554        -1.922387        -1.564678
 H         -5.283050        -1.873826        -3.012250
 O         -4.124492         0.989175        -4.521049
 H         -4.607898         0.879586        -3.702183
 H         -4.526427         1.752295        -4.936171
 O         -2.261607         0.991952         2.982544
 H         -2.328579         0.944922         2.028849
 H         -2.328191         1.925864         3.181559
 O         -2.663769         3.455256        -3.433559
 H         -1.816331         3.020636        -3.529393
 H         -2.598367         4.232590        -3.988272
 O          1.096483        -1.777629         2.767006
 H          1.300403        -2.669895         2.486809
 H          1.150483        -1.256734         1.965767
 O          3.881332        -1.444263         3.470856
 H          4.288776        -2.289371         3.660633
 H          2.951680        -1.645326         3.363363
 O          0.170079        -3.603014        -4.220758
 H          0.114457        -3.325013        -5.135009
 H         -0.420850        -3.011877        -3.754292
 O         -1.444031        -2.128179        -6.107945
 H         -1.058556        -2.792970        -6.678641
 H         -2.373825        -2.127231        -6.335356
 O         -5.491748        -3.198586         2.272621
 H         -5.417109        -2.613544         1.518705
 H         -4.827349        -3.870737         2.120897
 O         -1.355139        -5.412345        -1.247795
 H         -1.186196        -5.418994        -2.189945
 H         -2.215661        -5.821351        -1.155878
 O          2.548564        -4.238420         2.519041
 H          2.589696        -5.122264         2.884226
 H          3.156364        -4.256186         1.779787
 O         -5.462347         3.541728        -2.370780
 H         -5.308425         3.633630        -1.430517
 H         -4.644273         3.181670        -2.713335
 O         -1.256636        -5.537802         2.147520
 H         -2.142065        -5.352751         1.834465
 H         -0.700259        -4.922514         1.669926
