117

 C         -4.069432        -0.934350        -0.084726
 C         -2.940229        -1.728290         0.113981
 C         -1.643643        -1.124612         0.216417
 C         -1.532706         0.224921         0.072393
 C         -2.671592         1.049729        -0.159529
 C         -3.901576         0.468543        -0.209377
 H         -2.987747        -2.812238         0.160841
 H         -0.766003        -1.750516         0.348293
 H         -2.514814         2.116763        -0.287035
 H         -4.781138         1.085284        -0.368746
 O         -5.141973        -1.429742         0.041534
 C         -0.201430         0.924720        -0.058886
 H         -0.262109         2.006554        -0.160627
 C          2.182855         1.383282        -0.054474
 C          2.738887        -0.742202         0.221615
 C          1.057943         0.472293         0.010635
 N          1.428987        -0.838737         0.132156
 N          3.173864         0.541560         0.060741
 O          2.242446         2.624551        -0.168095
 C          4.570625         0.910538        -0.039099
 H          4.689956         1.860968         0.495350
 H          5.181573         0.092238         0.361300
 H          4.787914         1.163003        -1.084206
 C          3.646901        -1.911275        -0.017418
 H          4.311837        -2.151914         0.821116
 H          3.036748        -2.799892        -0.220547
 H          4.278919        -1.650569        -0.875191
 O         -2.551223        -1.028814         3.090231
 H         -2.595026        -1.107377         2.137266
 H         -2.990590        -1.814443         3.415772
 O         -0.989384         2.860009         5.772764
 H         -0.564799         2.324319         6.442837
 H         -1.770381         2.363415         5.528490
 O          1.719230         3.363852         4.905622
 H          0.826059         3.240382         5.226919
 H          1.973117         4.227923         5.229902
 O          0.986884         5.132966        -0.176714
 H          1.072232         5.373404         0.745857
 H          1.328292         4.239976        -0.224070
 O          3.334523         3.830775         1.951569
 H          2.803487         3.568598         2.703564
 H          2.897222         3.432446         1.199017
 O         -0.981557         4.158015        -2.585921
 H         -1.361109         4.931685        -3.002583
 H         -0.692418         4.466099        -1.727018
 O         -0.290454        -0.027932        -5.491494
 H          0.109201         0.566668        -4.856704
 H         -0.490681        -0.816795        -4.987674
 O          0.186006        -6.110607        -2.775434
 H         -0.164462        -6.773624        -2.180614
 H          0.975831        -5.790999        -2.339246
 O          3.449838        -0.322717        -3.200566
 H          2.755452         0.008479        -3.770101
 H          3.681009         0.422719        -2.646385
 O         -3.448556         3.138470        -3.702111
 H         -4.096699         3.652121        -3.220131
 H         -2.606846         3.519475        -3.451925
 O         -0.228545        -2.315076        -3.892265
 H          0.090663        -2.617563        -3.042066
 H          0.264995        -2.830174        -4.530484
 O          2.234071        -5.342296         0.120110
 H          3.067535        -5.269087        -0.344875
 H          2.413104        -4.985762         0.990204
 O          3.242759        -1.289520         4.879824
 H          4.170146        -1.123300         5.048805
 H          2.972047        -0.573797         4.304770
 O          2.270847         0.840495         3.673567
 H          2.039108         1.675963         4.079180
 H          1.494334         0.594857         3.170654
 O          3.440715        -4.610234         2.399796
 H          3.682845        -4.948575         3.261847
 H          3.046842        -3.756542         2.579538
 O          3.418334         1.886679        -5.291491
 H          3.141254         2.585891        -5.883573
 H          3.421932         2.293792        -4.425189
 O          0.496053        -3.055762        -1.579866
 H          0.877153        -3.772857        -1.073143
 H          0.925639        -2.269578        -1.242817
 O          0.633931         2.283551        -3.786556
 H          1.546657         2.195954        -3.511800
 H          0.255590         2.906108        -3.165659
 O          3.432636        -2.866516        -3.222037
 H          3.552564        -1.943847        -2.997244
 H          2.484767        -2.971881        -3.303746
 O          3.148076         2.851321        -2.660757
 H          2.794442         2.959834        -1.777920
 H          3.957296         3.362584        -2.659141
 O          0.592267         5.638173         2.455040
 H          0.000655         5.588269         3.205864
 H          1.449123         5.827403         2.837431
 O         -2.601569         5.442404        -0.036482
 H         -1.814418         5.949710        -0.234638
 H         -2.528099         5.240866         0.896372
 O         -3.474135         0.850558         5.155148
 H         -3.030587         0.302624         4.507639
 H         -4.368344         0.935876         4.824474
 O         -1.103156        -4.335475         3.360264
 H         -0.444215        -3.693427         3.624468
 H         -1.026335        -4.379188         2.407154
 O         -2.765692        -2.347457        -3.223772
 H         -2.624584        -2.339742        -2.277061
 H         -1.884982        -2.316827        -3.597459
 O          1.214778        -2.647734         3.725979
 H          1.984184        -2.291198         4.169973
 H          0.931178        -1.947217         3.138546
 O          0.046891        -0.507026         2.643368
 H         -0.890977        -0.629703         2.790291
 H          0.132446        -0.430364         1.693087
 O         -3.187593        -5.484493        -0.324553
 H         -4.114027        -5.278134        -0.448521
 H         -3.085909        -6.361342        -0.694725
 O         -0.543540        -4.805020         0.685236
 H         -1.372210        -5.045102         0.270632
 H          0.060302        -5.504846         0.436541
 O         -4.245178        -3.135929         3.567427
 H         -4.221450        -3.583596         4.413160
 H         -4.289608        -3.842734         2.923466
