117

 C         -4.069432        -0.934350        -0.084726
 C         -2.940229        -1.728290         0.113981
 C         -1.643643        -1.124612         0.216417
 C         -1.532706         0.224921         0.072393
 C         -2.671592         1.049729        -0.159529
 C         -3.901576         0.468543        -0.209377
 H         -2.987747        -2.812238         0.160841
 H         -0.766003        -1.750516         0.348293
 H         -2.514814         2.116763        -0.287035
 H         -4.781138         1.085284        -0.368746
 O         -5.141973        -1.429742         0.041534
 C         -0.201430         0.924720        -0.058886
 H         -0.262109         2.006554        -0.160627
 C          2.182855         1.383282        -0.054474
 C          2.738887        -0.742202         0.221615
 C          1.057943         0.472293         0.010635
 N          1.428987        -0.838737         0.132156
 N          3.173864         0.541560         0.060741
 O          2.242446         2.624551        -0.168095
 C          4.570625         0.910538        -0.039099
 H          4.689956         1.860968         0.495350
 H          5.181573         0.092238         0.361300
 H          4.787914         1.163003        -1.084206
 C          3.646901        -1.911275        -0.017418
 H          4.311837        -2.151914         0.821116
 H          3.036748        -2.799892        -0.220547
 H          4.278919        -1.650569        -0.875191
 O         -0.868394         4.594245         0.486614
 H         -1.478629         4.248091         1.137785
 H         -0.246629         5.115613         0.994370
 O          0.293094         0.637002        -4.436607
 H          0.872030         1.378087        -4.258117
 H          0.604030        -0.055654        -3.853702
 O          3.783269         4.536822        -0.740545
 H          3.428333         3.761145        -0.306292
 H          3.747884         4.326207        -1.673616
 O         -5.301563        -1.829955         2.702038
 H         -5.216951        -1.793735         1.749273
 H         -4.713594        -1.145234         3.020910
 O         -2.497544        -0.718944         3.101681
 H         -2.529009        -0.574498         2.155966
 H         -1.920151        -0.029775         3.430155
 O         -0.095393         3.699910        -4.646894
 H         -0.338565         2.809937        -4.391850
 H          0.113891         4.136903        -3.821382
 O          3.084743        -5.095147        -1.908081
 H          3.954990        -4.820120        -1.619535
 H          3.251899        -5.792697        -2.541891
 O          1.163265        -5.212152        -0.103825
 H          1.787288        -5.107023        -0.821999
 H          1.708577        -5.270458         0.680691
 O          4.497529        -0.294748         3.468573
 H          3.557258        -0.253448         3.642971
 H          4.739705         0.604356         3.246773
 O          1.679961        -0.652805         3.255499
 H          0.994540        -1.279615         3.486889
 H          1.542047        -0.480039         2.324177
 O          0.493028         3.919539        -1.881046
 H          1.004195         3.416724        -1.246920
 H         -0.208951         4.314286        -1.363714
 O          0.576190        -2.172675        -2.661094
 H         -0.035891        -2.907775        -2.626244
 H          0.939122        -2.121076        -1.776873
 O         -3.252159         2.299103        -4.582825
 H         -4.136308         1.972254        -4.416450
 H         -3.304461         3.236624        -4.396950
 O         -0.929818        -4.608815        -3.239328
 H         -0.856614        -5.538687        -3.024361
 H         -1.107383        -4.593659        -4.179792
 O         -2.369914        -2.906875         4.832768
 H         -2.339292        -2.148950         4.248949
 H         -2.350850        -3.662503         4.245489
 O          0.842628         5.967478         1.922022
 H          1.530698         6.116036         1.273390
 H          1.312381         5.705296         2.713743
 O         -0.622882         1.393874         3.844318
 H          0.194228         0.958403         3.601563
 H         -0.347049         2.235425         4.207552
 O          1.026147         3.384293         5.146521
 H          1.509258         3.823651         4.446661
 H          1.506461         3.605347         5.944433
 O          3.427408         4.076035         4.141590
 H          3.860418         4.928986         4.176342
 H          4.105386         3.475701         3.831467
 O         -2.773380         1.099511         6.021856
 H         -3.619931         0.920212         5.612669
 H         -2.469784         1.904093         5.601490
 O          2.434516         2.377005        -4.202661
 H          3.284208         2.520003        -3.785756
 H          2.269483         3.182618        -4.692541
 O         -4.950913        -4.034204        -0.910551
 H         -4.884844        -3.170285        -0.503721
 H         -5.841655        -4.324148        -0.713715
 O         -2.281190        -4.957296         3.063715
 H         -2.874116        -5.678817         2.853767
 H         -1.790259        -4.807867         2.255699
 O          2.912769        -5.708493         1.868376
 H          3.166744        -6.402996         2.476152
 H          3.601468        -5.049562         1.956331
 O         -4.977607         2.950810         2.699207
 H         -5.175015         3.805522         2.316154
 H         -5.833853         2.543395         2.829918
 O         -1.536772        -4.890854         0.461258
 H         -1.756831        -4.432770        -0.349892
 H         -0.616841        -5.133956         0.357035
 O         -2.228972         2.978432         2.200106
 H         -3.156685         2.818717         2.373522
 H         -1.787818         2.187278         2.509439
 O         -2.141067        -1.450204        -4.160194
 H         -2.067263        -0.509547        -3.999108
 H         -1.241721        -1.773595        -4.107038
 O         -3.924612        -3.889422        -3.624049
 H         -4.354233        -3.782143        -2.775433
 H         -3.373993        -3.111605        -3.713778
 O          2.755336        -2.775403        -4.715637
 H          2.196847        -3.152657        -5.395345
 H          2.157857        -2.587200        -3.991876
