117

 C         -4.069432        -0.934350        -0.084726
 C         -2.940229        -1.728290         0.113981
 C         -1.643643        -1.124612         0.216417
 C         -1.532706         0.224921         0.072393
 C         -2.671592         1.049729        -0.159529
 C         -3.901576         0.468543        -0.209377
 H         -2.987747        -2.812238         0.160841
 H         -0.766003        -1.750516         0.348293
 H         -2.514814         2.116763        -0.287035
 H         -4.781138         1.085284        -0.368746
 O         -5.141973        -1.429742         0.041534
 C         -0.201430         0.924720        -0.058886
 H         -0.262109         2.006554        -0.160627
 C          2.182855         1.383282        -0.054474
 C          2.738887        -0.742202         0.221615
 C          1.057943         0.472293         0.010635
 N          1.428987        -0.838737         0.132156
 N          3.173864         0.541560         0.060741
 O          2.242446         2.624551        -0.168095
 C          4.570625         0.910538        -0.039099
 H          4.689956         1.860968         0.495350
 H          5.181573         0.092238         0.361300
 H          4.787914         1.163003        -1.084206
 C          3.646901        -1.911275        -0.017418
 H          4.311837        -2.151914         0.821116
 H          3.036748        -2.799892        -0.220547
 H          4.278919        -1.650569        -0.875191
 O          1.711646        -6.213502        -0.329710
 H          2.446971        -6.559287        -0.835638
 H          1.512363        -6.902196         0.304497
 O          3.420776         3.428414        -2.502411
 H          4.354266         3.271785        -2.359954
 H          2.994066         3.046672        -1.735325
 O         -4.879711        -2.593566         2.581768
 H         -4.623178        -2.174085         1.760513
 H         -4.474234        -2.056052         3.262135
 O         -3.710695         3.739211         2.830452
 H         -3.568874         2.792863         2.853771
 H         -2.980444         4.103236         3.330900
 O          0.059648         4.834096        -0.680500
 H         -0.677207         5.442527        -0.624920
 H          0.633580         5.213174        -1.346182
 O         -2.907469        -0.850578        -4.195850
 H         -3.595422        -0.192828        -4.094273
 H         -2.225407        -0.407773        -4.700775
 O          0.577926        -3.918206         0.342630
 H          1.058311        -4.736739         0.218262
 H          0.520740        -3.538462        -0.534157
 O          0.088069         3.554007         1.689657
 H          0.918552         3.104617         1.532879
 H          0.000230         4.158843         0.952984
 O         -2.589849         5.192771        -1.069309
 H         -2.634018         5.185042        -2.025459
 H         -3.470652         4.946521        -0.786856
 O         -3.368011        -5.435195         2.169678
 H         -4.151500        -4.894677         2.270762
 H         -2.641882        -4.812185         2.198421
 O         -0.237906         2.540324        -2.561288
 H         -0.096505         1.777758        -2.000278
 H         -0.175807         3.288935        -1.968027
 O          2.732297         2.913735         4.829937
 H          2.424609         3.639045         5.373526
 H          3.623983         3.160132         4.584137
 O          0.323301        -2.393869        -2.077448
 H          0.099569        -1.695865        -1.461845
 H          0.878875        -1.968295        -2.730485
 O         -1.756636         3.126363        -4.541626
 H         -1.838305         3.741690        -3.812973
 H         -1.178046         2.439179        -4.211105
 O         -3.460083        -1.516309         5.020329
 H         -2.612157        -1.959327         5.051769
 H         -3.326859        -0.786773         4.415134
 O          1.215085        -0.975959         3.088081
 H          2.025367        -1.466007         3.227821
 H          1.034620        -1.073142         2.153086
 O          2.187825         5.987881        -1.920483
 H          2.749767         5.214066        -1.879663
 H          2.790164         6.726325        -1.830360
 O         -0.911271        -0.339772        -5.837645
 H         -1.194955         0.048171        -6.665446
 H          0.037135        -0.431705        -5.928792
 O         -1.328887        -3.817223         2.827221
 H         -0.971377        -3.282905         3.536392
 H         -0.710250        -3.702746         2.105822
 O          1.844503        -1.265895        -4.002759
 H          2.747894        -0.971320        -3.887242
 H          1.909091        -2.005142        -4.607387
 O          0.289798         1.408433         4.062836
 H          0.607728         0.644948         3.580921
 H          1.074302         1.781878         4.464483
 O          3.811095         4.499261         1.529293
 H          3.132816         3.925280         1.173319
 H          4.186279         4.003817         2.257307
 O         -3.693095        -5.110045        -1.703724
 H         -3.411294        -4.358354        -2.225049
 H         -2.888429        -5.600760        -1.536554
 O         -2.180599        -3.280141        -3.274994
 H         -2.557482        -2.411338        -3.414176
 H         -1.322385        -3.109562        -2.886918
 O         -1.255942        -6.198040        -1.772316
 H         -1.021350        -6.661217        -0.968163
 H         -0.581387        -5.525527        -1.866842
 O         -0.719182        -2.144807         4.996378
 H         -0.003037        -1.608491         4.656183
 H         -0.398619        -2.465642         5.839312
 O          2.925613        -3.217433         3.329588
 H          2.717157        -3.861855         4.005976
 H          3.040380        -3.735187         2.532724
 O          4.435537        -0.146985        -3.794835
 H          4.622693         0.315358        -4.611807
 H          4.795724         0.418509        -3.111672
 O         -1.184438         3.880986         4.177773
 H         -0.707577         3.793309         3.352453
 H         -0.912703         3.121587         4.693235
 O         -2.323038         0.263032         3.271162
 H         -1.447819         0.606938         3.449915
 H         -2.308959         0.044949         2.339243
