117

 C         -4.069432        -0.934350        -0.084726
 C         -2.940229        -1.728290         0.113981
 C         -1.643643        -1.124612         0.216417
 C         -1.532706         0.224921         0.072393
 C         -2.671592         1.049729        -0.159529
 C         -3.901576         0.468543        -0.209377
 H         -2.987747        -2.812238         0.160841
 H         -0.766003        -1.750516         0.348293
 H         -2.514814         2.116763        -0.287035
 H         -4.781138         1.085284        -0.368746
 O         -5.141973        -1.429742         0.041534
 C         -0.201430         0.924720        -0.058886
 H         -0.262109         2.006554        -0.160627
 C          2.182855         1.383282        -0.054474
 C          2.738887        -0.742202         0.221615
 C          1.057943         0.472293         0.010635
 N          1.428987        -0.838737         0.132156
 N          3.173864         0.541560         0.060741
 O          2.242446         2.624551        -0.168095
 C          4.570625         0.910538        -0.039099
 H          4.689956         1.860968         0.495350
 H          5.181573         0.092238         0.361300
 H          4.787914         1.163003        -1.084206
 C          3.646901        -1.911275        -0.017418
 H          4.311837        -2.151914         0.821116
 H          3.036748        -2.799892        -0.220547
 H          4.278919        -1.650569        -0.875191
 O          1.083759         4.973828         0.816292
 H          0.414291         5.301781         0.215881
 H          1.418613         4.183318         0.392975
 O          3.220197        -0.100744        -4.206501
 H          3.284648        -0.899440        -4.730106
 H          4.128261         0.135342        -4.016993
 O         -2.611271        -0.699693         5.157085
 H         -3.559559        -0.602117         5.070713
 H         -2.255416        -0.287898         4.369669
 O         -3.255066        -3.397334        -2.393239
 H         -2.374400        -3.228475        -2.728121
 H         -3.642807        -2.528281        -2.290101
 O          0.215240        -3.800850        -1.290800
 H          0.493545        -2.885383        -1.264399
 H         -0.482575        -3.820255        -1.945713
 O          1.142785        -3.604165         2.916201
 H          1.640641        -4.121514         2.283175
 H          0.251529        -3.948560         2.858881
 O         -1.083756         5.593539        -0.754347
 H         -1.707885         5.242863        -1.389740
 H         -0.937478         6.496695        -1.035671
 O         -2.706751         4.213538        -2.696164
 H         -3.655040         4.176486        -2.571232
 H         -2.576727         4.912602        -3.336971
 O         -5.281843         3.676882         0.117010
 H         -5.585376         4.574792         0.250650
 H         -5.134273         3.611871        -0.826509
 O         -4.100182        -3.391318         3.240997
 H         -4.286080        -3.300971         4.175615
 H         -3.563296        -2.627833         3.028683
 O         -1.881469         1.788426        -3.747317
 H         -2.039441         2.685565        -3.453348
 H         -0.931617         1.682690        -3.694082
 O         -0.852389        -1.650581        -2.979579
 H         -1.388911        -0.880876        -2.790022
 H         -0.093247        -1.303842        -3.448310
 O          1.070298        -3.495204         5.599152
 H          1.159475        -3.622072         4.654598
 H          0.126071        -3.513342         5.755161
 O         -0.073483         6.129651         3.076881
 H         -0.461402         5.789593         3.883175
 H          0.098766         5.351247         2.547117
 O         -1.201838         0.893889         3.016056
 H         -0.456761         0.306851         3.144428
 H         -1.155150         1.141766         2.092690
 O          4.763282         4.428672         2.046465
 H          4.112075         4.444329         2.747833
 H          5.171262         3.565703         2.117657
 O         -5.628357         1.364106        -3.010488
 H         -6.410154         1.894082        -3.165890
 H         -4.904881         1.906853        -3.323922
 O          4.216340         4.161008        -1.573698
 H          3.847923         3.459576        -1.036581
 H          3.455690         4.662102        -1.867886
 O          1.981639         3.745057         4.542004
 H          2.580697         4.471165         4.368425
 H          1.112432         4.145938         4.539913
 O         -1.272992        -4.932772         3.127726
 H         -1.161937        -5.862734         3.325384
 H         -2.191927        -4.753634         3.326975
 O          1.010515        -0.809337         3.345823
 H          1.405442        -0.597839         2.499933
 H          1.170463        -1.746482         3.457212
 O          0.816654         1.242589        -3.799379
 H          1.631826         0.769637        -3.966833
 H          1.097900         2.089509        -3.453176
 O          3.113014         1.371798         3.431183
 H          2.495151         2.033051         3.742987
 H          2.770423         0.544949         3.770573
 O          1.633189         3.448794        -2.595824
 H          1.628888         4.402497        -2.514175
 H          1.585593         3.130997        -1.694176
 O          1.715234        -5.233571         0.683933
 H          1.302388        -6.095620         0.735521
 H          1.033487        -4.662293         0.330248
 O         -0.994319        -2.958545        -5.805652
 H         -0.976540        -2.758039        -4.869856
 H         -0.078307        -2.908228        -6.078825
 O         -3.550379        -0.658479        -3.285556
 H         -4.310312        -0.330947        -2.804459
 H         -2.898021         0.037390        -3.205390
 O         -3.978683         3.565848         2.769667
 H         -3.899050         3.692027         1.824169
 H         -4.903438         3.360303         2.906826
 O         -1.755307         3.323615         4.212393
 H         -1.330506         2.522063         3.906956
 H         -2.482937         3.455601         3.604639
 O          1.292171        -6.252857        -2.327913
 H          1.395772        -5.384518        -1.938700
 H          1.479348        -6.122525        -3.257543
