117

 C         -4.069432        -0.934350        -0.084726
 C         -2.940229        -1.728290         0.113981
 C         -1.643643        -1.124612         0.216417
 C         -1.532706         0.224921         0.072393
 C         -2.671592         1.049729        -0.159529
 C         -3.901576         0.468543        -0.209377
 H         -2.987747        -2.812238         0.160841
 H         -0.766003        -1.750516         0.348293
 H         -2.514814         2.116763        -0.287035
 H         -4.781138         1.085284        -0.368746
 O         -5.141973        -1.429742         0.041534
 C         -0.201430         0.924720        -0.058886
 H         -0.262109         2.006554        -0.160627
 C          2.182855         1.383282        -0.054474
 C          2.738887        -0.742202         0.221615
 C          1.057943         0.472293         0.010635
 N          1.428987        -0.838737         0.132156
 N          3.173864         0.541560         0.060741
 O          2.242446         2.624551        -0.168095
 C          4.570625         0.910538        -0.039099
 H          4.689956         1.860968         0.495350
 H          5.181573         0.092238         0.361300
 H          4.787914         1.163003        -1.084206
 C          3.646901        -1.911275        -0.017418
 H          4.311837        -2.151914         0.821116
 H          3.036748        -2.799892        -0.220547
 H          4.278919        -1.650569        -0.875191
 O         -2.038769         5.968861         0.646282
 H         -2.238408         5.640120         1.522814
 H         -1.253031         5.489312         0.383833
 O         -0.223511         1.105296        -3.511262
 H         -0.824857         1.769892        -3.175215
 H          0.283164         1.559270        -4.184627
 O          4.521796        -1.975551         3.597904
 H          4.085452        -1.168414         3.870607
 H          5.451640        -1.809196         3.752647
 O          4.355623         3.989379        -0.563642
 H          3.835834         3.292371        -0.163357
 H          3.807504         4.317742        -1.276367
 O         -4.139095         1.075349         3.010033
 H         -4.877498         1.676879         2.914362
 H         -3.633768         1.186446         2.204718
 O         -3.008875        -3.249660        -4.737406
 H         -2.250003        -3.799351        -4.541994
 H         -3.745930        -3.705733        -4.331230
 O          0.992763        -5.264157        -0.940844
 H          1.758752        -5.598535        -1.407408
 H          0.731939        -4.486829        -1.434771
 O          3.380187         0.669429         3.627855
 H          3.832176         0.987450         2.846317
 H          3.695157         1.234542         4.333313
 O          0.606828        -0.385532         2.886644
 H          1.453294         0.047721         2.996269
 H          0.592960        -0.655238         1.968332
 O         -4.372083        -1.842983         3.496172
 H         -4.368417        -0.921211         3.238190
 H         -3.453155        -2.046605         3.670353
 O          4.807897         1.360869        -3.628382
 H          4.964612         2.304423        -3.591253
 H          4.816274         1.153271        -4.562760
 O          0.191962         4.625495        -0.659609
 H          0.776012         3.872666        -0.568140
 H          0.776508         5.383479        -0.659962
 O          0.940336        -1.049218        -2.789258
 H          0.409890        -0.275749        -2.980577
 H          1.288633        -0.889781        -1.912046
 O         -3.128680         1.858393        -3.802469
 H         -3.067971         2.237824        -2.925782
 H         -2.987576         0.921229        -3.668143
 O         -1.179278        -5.289926         0.981592
 H         -0.361678        -5.504209         0.532322
 H         -1.812964        -5.158993         0.276234
 O         -1.659955        -1.720096         3.840897
 H         -0.931519        -1.225940         3.464836
 H         -1.382649        -2.634601         3.785994
 O         -1.478301         2.356705         2.545502
 H         -1.368117         1.505309         2.122164
 H         -1.706052         2.146231         3.451075
 O          0.785947         3.093449         4.760429
 H          1.203580         3.431590         3.968296
 H          1.175246         3.601664         5.472044
 O          2.045102         2.656544        -4.291534
 H          2.207050         3.372319        -3.676986
 H          2.865287         2.163277        -4.306211
 O          2.303298         4.129735         2.567240
 H          3.139411         3.733281         2.812134
 H          2.124025         3.788672         1.691015
 O         -1.628714         2.104188         5.256529
 H         -1.530452         1.439929         5.938684
 H         -0.742877         2.440173         5.120014
 O          2.861213        -3.041907        -4.278432
 H          3.565582        -3.285794        -3.677919
 H          2.449407        -2.281356        -3.868298
 O         -2.801786         5.070201        -2.429553
 H         -3.659878         5.069936        -2.853711
 H         -2.910255         5.642468        -1.669964
 O         -5.136193        -3.672586        -1.317303
 H         -5.237881        -2.836742        -0.862049
 H         -5.653682        -3.574504        -2.116562
 O          2.372884        -3.815316         4.081718
 H          2.335672        -3.577484         5.008154
 H          3.018987        -3.216934         3.706591
 O         -0.801007        -4.321840         3.502041
 H         -1.012603        -4.721079         2.658199
 H          0.123225        -4.083654         3.429283
 O         -2.243920         5.151479         3.326704
 H         -1.432557         5.420790         3.757277
 H         -2.155665         4.204304         3.220379
 O         -2.876495        -0.873124        -3.346143
 H         -2.759579        -1.724172        -3.768377
 H         -2.475782        -0.976890        -2.483070
 O         -2.426218        -4.725157        -1.397602
 H         -1.793360        -4.025115        -1.557810
 H         -3.247945        -4.268535        -1.217342
 O         -1.037982        -3.003465        -2.709198
 H         -0.895118        -3.776246        -3.255669
 H         -0.311461        -2.419173        -2.925998
