117

 C         -4.069432        -0.934350        -0.084726
 C         -2.940229        -1.728290         0.113981
 C         -1.643643        -1.124612         0.216417
 C         -1.532706         0.224921         0.072393
 C         -2.671592         1.049729        -0.159529
 C         -3.901576         0.468543        -0.209377
 H         -2.987747        -2.812238         0.160841
 H         -0.766003        -1.750516         0.348293
 H         -2.514814         2.116763        -0.287035
 H         -4.781138         1.085284        -0.368746
 O         -5.141973        -1.429742         0.041534
 C         -0.201430         0.924720        -0.058886
 H         -0.262109         2.006554        -0.160627
 C          2.182855         1.383282        -0.054474
 C          2.738887        -0.742202         0.221615
 C          1.057943         0.472293         0.010635
 N          1.428987        -0.838737         0.132156
 N          3.173864         0.541560         0.060741
 O          2.242446         2.624551        -0.168095
 C          4.570625         0.910538        -0.039099
 H          4.689956         1.860968         0.495350
 H          5.181573         0.092238         0.361300
 H          4.787914         1.163003        -1.084206
 C          3.646901        -1.911275        -0.017418
 H          4.311837        -2.151914         0.821116
 H          3.036748        -2.799892        -0.220547
 H          4.278919        -1.650569        -0.875191
 O          1.626338         3.507426         3.824327
 H          2.436980         3.883296         4.167568
 H          1.324653         2.917384         4.515030
 O         -0.232686        -0.123552        -3.725574
 H         -0.493438         0.627009        -3.191817
 H          0.045059        -0.783946        -3.090775
 O         -4.596164         3.828118        -1.163088
 H         -4.300588         4.708480        -0.931070
 H         -4.129817         3.624818        -1.973902
 O          4.039689        -0.596853         2.999538
 H          3.839101         0.329594         2.866520
 H          4.960092        -0.680799         2.750450
 O          0.406558        -2.485488        -2.510160
 H          0.638461        -2.251823        -1.611355
 H         -0.476598        -2.848474        -2.443003
 O          0.093177         1.388617         5.374805
 H         -0.573588         1.314496         4.692045
 H          0.694762         0.664489         5.201710
 O          2.163551         1.345813        -4.644595
 H          1.382890         0.932477        -4.275875
 H          2.001367         2.285081        -4.556828
 O          3.896735         4.371651         1.322414
 H          3.334787         3.736788         0.878124
 H          3.347211         4.732169         2.018320
 O          0.361747        -5.740572        -1.395763
 H         -0.475161        -6.172357        -1.224356
 H          0.125106        -4.841706        -1.624395
 O         -1.233895         1.665789        -5.852891
 H         -2.072299         2.053811        -6.103391
 H         -1.241671         1.676036        -4.895778
 O          0.488405        -2.479673         2.393414
 H          0.960214        -2.165317         1.622175
 H          1.032323        -3.189906         2.733933
 O         -0.722262         4.308125         2.336088
 H          0.074716         3.786601         2.431318
 H         -1.021027         4.128384         1.444649
 O         -4.871491         1.581671         3.146759
 H         -5.306646         1.622409         2.295166
 H         -4.632784         0.660474         3.249929
 O         -3.917948         2.776858        -3.807286
 H         -4.042968         2.639558        -4.746302
 H         -3.903033         3.728381        -3.704253
 O          2.543590        -4.389758         3.082954
 H          3.068603        -4.408079         3.883116
 H          3.179687        -4.501764         2.376507
 O         -1.106398        -1.139924        -6.156308
 H         -1.014817        -0.352905        -6.693379
 H         -0.791278        -0.877643        -5.291358
 O         -2.123955         2.048335         3.594749
 H         -3.054818         1.836415         3.664135
 H         -2.086444         2.753989         2.949089
 O         -1.744160        -1.321466         3.636818
 H         -1.717467        -0.416309         3.326641
 H         -1.107716        -1.781162         3.089233
 O         -2.582643         0.101449         5.920910
 H         -1.672688         0.295399         6.145845
 H         -2.552144        -0.154634         4.999105
 O          1.246812         4.536446        -1.987988
 H          1.438571         3.897784        -1.301277
 H          1.240709         5.379985        -1.535620
 O          2.202512        -0.626159         5.307913
 H          2.763263        -0.369531         4.575840
 H          1.574865        -1.239312         4.925377
 O         -1.632420        -4.832835         1.339870
 H         -1.086133        -4.046834         1.342100
 H         -2.366997        -4.615596         1.913839
 O          4.853992         1.164256        -3.556246
 H          4.730993         0.231318        -3.731549
 H          4.029365         1.569216        -3.825001
 O          2.560718         4.059039        -4.303805
 H          2.558429         4.946330        -4.662889
 H          2.183444         4.153638        -3.429193
 O         -1.230206         4.460063        -0.286913
 H         -2.138917         4.748795        -0.371237
 H         -0.725787         5.271302        -0.226202
 O         -1.992739        -3.605144        -2.435362
 H         -2.769136        -3.723085        -1.888069
 H         -2.274438        -3.870066        -3.310973
 O         -5.247165        -3.019242        -2.223213
 H         -5.141253        -2.494197        -1.429901
 H         -6.099482        -2.757629        -2.571561
 O          1.878862        -2.938212        -4.703266
 H          1.872098        -2.223314        -5.339746
 H          1.381894        -2.600297        -3.958237
 O         -0.944833         2.368905        -2.985072
 H         -1.882323         2.353921        -2.792409
 H         -0.580399         2.988995        -2.353478
 O         -3.829623        -3.399826         2.576035
 H         -4.017766        -3.946517         3.338902
 H         -3.227442        -2.731463         2.902990
