117

 C         -4.069432        -0.934350        -0.084726
 C         -2.940229        -1.728290         0.113981
 C         -1.643643        -1.124612         0.216417
 C         -1.532706         0.224921         0.072393
 C         -2.671592         1.049729        -0.159529
 C         -3.901576         0.468543        -0.209377
 H         -2.987747        -2.812238         0.160841
 H         -0.766003        -1.750516         0.348293
 H         -2.514814         2.116763        -0.287035
 H         -4.781138         1.085284        -0.368746
 O         -5.141973        -1.429742         0.041534
 C         -0.201430         0.924720        -0.058886
 H         -0.262109         2.006554        -0.160627
 C          2.182855         1.383282        -0.054474
 C          2.738887        -0.742202         0.221615
 C          1.057943         0.472293         0.010635
 N          1.428987        -0.838737         0.132156
 N          3.173864         0.541560         0.060741
 O          2.242446         2.624551        -0.168095
 C          4.570625         0.910538        -0.039099
 H          4.689956         1.860968         0.495350
 H          5.181573         0.092238         0.361300
 H          4.787914         1.163003        -1.084206
 C          3.646901        -1.911275        -0.017418
 H          4.311837        -2.151914         0.821116
 H          3.036748        -2.799892        -0.220547
 H          4.278919        -1.650569        -0.875191
 O         -2.005328         4.345681        -2.205145
 H         -2.580101         4.596699        -1.482058
 H         -2.462681         4.646756        -2.990265
 O          1.869136         3.176274        -2.888299
 H          2.725192         2.937579        -3.243858
 H          1.978221         3.114423        -1.939348
 O         -4.627444        -3.139856         2.616547
 H         -5.065395        -2.397531         2.200151
 H         -3.823915        -2.769661         2.981966
 O         -0.478629         3.696225         3.043356
 H          0.233531         3.136882         2.733208
 H         -0.840314         3.228282         3.795982
 O         -3.830890         5.505980        -0.051735
 H         -4.310955         5.449645         0.774458
 H         -4.504758         5.679875        -0.708923
 O         -3.259755        -2.081502        -4.531107
 H         -4.167022        -2.300290        -4.318432
 H         -3.020518        -1.407401        -3.895036
 O          1.224231        -4.718564        -0.900909
 H          1.383403        -5.301932        -1.642920
 H          1.127881        -3.851330        -1.294426
 O          1.047939         4.836434         1.058723
 H          1.408059         4.014321         0.726046
 H          0.552823         4.583161         1.837791
 O          5.608886        -0.085439        -3.256530
 H          6.099103        -0.431119        -2.510591
 H          6.131290        -0.329858        -4.020457
 O         -3.186800        -5.438245         2.056488
 H         -3.881950        -4.788555         2.160902
 H         -2.463130        -4.953100         1.660044
 O         -0.612082         2.206095        -3.274909
 H         -0.911923         2.890061        -2.676143
 H          0.343038         2.256818        -3.237447
 O          2.608472         3.533314         3.786778
 H          2.001195         3.903958         4.427143
 H          3.009811         4.295018         3.368486
 O          1.021716        -2.303777        -2.273730
 H          1.059140        -1.694898        -1.536100
 H          1.563688        -1.895623        -2.948943
 O         -2.878709         0.607552        -3.327019
 H         -2.034953         1.025202        -3.499869
 H         -2.994671         0.684825        -2.380016
 O          4.289220         2.239598        -3.885345
 H          4.941428         2.911751        -3.687694
 H          4.723268         1.414059        -3.670123
 O         -2.500381        -1.925023         4.109386
 H         -1.615771        -2.274364         4.217363
 H         -2.368627        -1.001798         3.893684
 O          1.307149        -1.649904         2.742636
 H          2.172378        -2.059247         2.749691
 H          1.087276        -1.570579         1.814415
 O          0.061860         6.007966        -1.275192
 H          0.367608         5.523026        -0.508652
 H         -0.817399         5.667050        -1.439243
 O         -0.670768        -4.410042         1.464891
 H         -0.020100        -4.756606         2.075428
 H         -0.239558        -4.443272         0.610968
 O          3.846902        -4.334200        -3.050728
 H          3.313831        -3.587836        -3.324603
 H          4.739745        -4.094897        -3.299313
 O          1.000947         1.156493         2.956753
 H          1.358556         0.278836         3.091160
 H          1.736223         1.744015         3.131170
 O         -5.523936        -3.681000        -1.152058
 H         -5.518985        -2.927478        -0.561792
 H         -4.665528        -4.086537        -1.029959
 O          3.735315         5.559149        -0.371067
 H          2.871198         5.625523         0.035294
 H          4.285754         6.154162         0.138060
 O          3.365449        -1.822749        -4.372225
 H          3.901151        -2.340593        -4.973137
 H          3.910556        -1.065955        -4.156929
 O         -1.719292         2.339726         5.477671
 H         -2.642315         2.558152         5.606329
 H         -1.723881         1.678248         4.785820
 O         -3.197879        -5.143681        -2.161854
 H         -2.661375        -4.483114        -2.600085
 H         -2.567355        -5.697109        -1.700996
 O         -1.239789        -3.594515        -3.106366
 H         -1.727332        -2.963776        -3.636179
 H         -0.484420        -3.103065        -2.783682
 O         -0.134246        -2.847878         4.680244
 H          0.378129        -3.644957         4.815784
 H          0.238385        -2.454936         3.890957
 O          1.865892        -5.102470         2.683643
 H          1.793254        -6.047572         2.550470
 H          2.807596        -4.940039         2.738791
 O         -1.673821         0.588555         3.253031
 H         -0.742606         0.598321         3.031729
 H         -2.116996         0.440470         2.417627
