117

 C         -4.069432        -0.934350        -0.084726
 C         -2.940229        -1.728290         0.113981
 C         -1.643643        -1.124612         0.216417
 C         -1.532706         0.224921         0.072393
 C         -2.671592         1.049729        -0.159529
 C         -3.901576         0.468543        -0.209377
 H         -2.987747        -2.812238         0.160841
 H         -0.766003        -1.750516         0.348293
 H         -2.514814         2.116763        -0.287035
 H         -4.781138         1.085284        -0.368746
 O         -5.141973        -1.429742         0.041534
 C         -0.201430         0.924720        -0.058886
 H         -0.262109         2.006554        -0.160627
 C          2.182855         1.383282        -0.054474
 C          2.738887        -0.742202         0.221615
 C          1.057943         0.472293         0.010635
 N          1.428987        -0.838737         0.132156
 N          3.173864         0.541560         0.060741
 O          2.242446         2.624551        -0.168095
 C          4.570625         0.910538        -0.039099
 H          4.689956         1.860968         0.495350
 H          5.181573         0.092238         0.361300
 H          4.787914         1.163003        -1.084206
 C          3.646901        -1.911275        -0.017418
 H          4.311837        -2.151914         0.821116
 H          3.036748        -2.799892        -0.220547
 H          4.278919        -1.650569        -0.875191
 O          1.810516         4.899815        -1.490171
 H          1.713605         4.636199        -2.405238
 H          1.817704         4.075877        -1.003029
 O          4.366536         4.224177         0.908932
 H          5.169168         3.951701         1.353645
 H          3.690255         3.643908         1.258451
 O         -0.255980         4.806105         4.126223
 H          0.185264         4.367276         3.398924
 H         -0.415709         4.110602         4.764185
 O         -1.421302        -1.375400        -2.901035
 H         -1.715152        -0.564649        -3.316447
 H         -1.239072        -1.127679        -1.994581
 O         -0.341483        -5.250175        -0.085819
 H         -1.157548        -4.851988        -0.388666
 H          0.168582        -5.387683        -0.884041
 O          2.820958        -2.895878         3.650517
 H          2.790015        -1.957536         3.463999
 H          3.385328        -2.968597         4.420212
 O         -2.426886         4.814589        -0.646612
 H         -2.427435         4.566787         0.277956
 H         -1.917208         4.128810        -1.078079
 O         -1.221371         2.200116        -2.692011
 H         -1.998709         1.735139        -3.001484
 H         -0.515679         1.891766        -3.260474
 O          1.267514        -1.951492        -2.734833
 H          1.544950        -1.431054        -1.980906
 H          0.337001        -1.750688        -2.835117
 O          4.542720         2.939671         3.586697
 H          3.799115         2.535830         4.034134
 H          4.454875         3.874614         3.772165
 O          3.353502         1.977700        -4.050764
 H          3.832807         1.383315        -4.628002
 H          3.683582         2.847670        -4.275329
 O         -0.472172        -0.907087         5.592361
 H         -0.161759        -1.377832         4.818880
 H         -0.526984         0.006169         5.310953
 O          0.388595        -1.525243         2.798300
 H          0.362167        -2.468988         2.640575
 H          0.511302        -1.140699         1.930370
 O         -2.237011         3.903294         1.760878
 H         -1.543574         4.163777         2.367117
 H         -2.879613         3.454709         2.310484
 O         -1.370183         2.628234         5.662622
 H         -2.048032         2.597646         6.337767
 H         -1.754098         2.167302         4.916712
 O         -2.906158        -2.581376         2.985395
 H         -2.950589        -2.641094         2.031094
 H         -2.386351        -3.340699         3.248951
 O          0.832999         1.242154        -4.055759
 H          1.735965         1.492806        -3.860673
 H          0.913905         0.528645        -4.688682
 O          1.210187         1.267672         3.401501
 H          0.809903         0.398354         3.418579
 H          1.890937         1.231141         4.073421
 O          0.959525         3.786080         1.994499
 H          1.301076         3.691535         1.105322
 H          1.080352         2.923056         2.390511
 O         -4.078447         2.417548         2.991745
 H         -4.922953         2.328431         2.550043
 H         -3.718516         1.530650         3.001556
 O         -3.268121         1.201253        -3.913836
 H         -2.947249         1.154832        -4.814457
 H         -4.132457         0.791238        -3.946088
 O         -2.830247        -4.985746        -0.959251
 H         -2.857976        -4.862618        -1.908094
 H         -2.918333        -5.931105        -0.837732
 O          0.427926         4.026316        -4.012143
 H          0.959649         3.292443        -4.320252
 H         -0.303941         3.615292        -3.552079
 O          2.740672         1.345677         5.595390
 H          3.506931         0.850281         5.884636
 H          2.177802         1.389159         6.368385
 O         -3.841187        -2.982335        -3.002277
 H         -3.428138        -2.198859        -2.639252
 H         -3.109313        -3.557898        -3.224359
 O         -0.631543        -4.034322         4.975880
 H         -0.240786        -3.927602         4.108612
 H          0.050376        -4.460603         5.495018
 O          0.150110        -4.151241         2.390171
 H          0.685701        -4.822229         2.813431
 H          0.152189        -4.392253         1.463812
 O         -4.552291         3.698838        -3.020435
 H         -5.037500         3.503775        -2.218716
 H         -3.675637         3.349179        -2.860910
 O         -2.237220         0.027013         3.661444
 H         -2.184076        -0.756439         3.114075
 H         -2.788412        -0.233354         4.399433
 O          2.343622        -4.415595        -2.979589
 H          1.825710        -3.616534        -2.882122
 H          3.110744        -4.143834        -3.483475
