117

 C         -4.069432        -0.934350        -0.084726
 C         -2.940229        -1.728290         0.113981
 C         -1.643643        -1.124612         0.216417
 C         -1.532706         0.224921         0.072393
 C         -2.671592         1.049729        -0.159529
 C         -3.901576         0.468543        -0.209377
 H         -2.987747        -2.812238         0.160841
 H         -0.766003        -1.750516         0.348293
 H         -2.514814         2.116763        -0.287035
 H         -4.781138         1.085284        -0.368746
 O         -5.141973        -1.429742         0.041534
 C         -0.201430         0.924720        -0.058886
 H         -0.262109         2.006554        -0.160627
 C          2.182855         1.383282        -0.054474
 C          2.738887        -0.742202         0.221615
 C          1.057943         0.472293         0.010635
 N          1.428987        -0.838737         0.132156
 N          3.173864         0.541560         0.060741
 O          2.242446         2.624551        -0.168095
 C          4.570625         0.910538        -0.039099
 H          4.689956         1.860968         0.495350
 H          5.181573         0.092238         0.361300
 H          4.787914         1.163003        -1.084206
 C          3.646901        -1.911275        -0.017418
 H          4.311837        -2.151914         0.821116
 H          3.036748        -2.799892        -0.220547
 H          4.278919        -1.650569        -0.875191
 O          3.717483        -5.485481        -1.185234
 H          3.672866        -6.387069        -0.866831
 H          2.829879        -5.146383        -1.069456
 O         -0.425465         5.992905         2.751398
 H         -0.706391         5.616559         1.917326
 H          0.253495         5.396407         3.066734
 O          4.374427         4.307946         2.460213
 H          3.893249         3.484397         2.379797
 H          4.002607         4.869950         1.780409
 O          3.676387        -0.430459        -3.162731
 H          3.549957        -1.017375        -3.908234
 H          4.551246        -0.642028        -2.837010
 O         -5.229579        -4.226336         0.126902
 H         -5.136617        -3.342615        -0.228945
 H         -6.135491        -4.468053        -0.065783
 O         -4.367130        -2.231250        -3.954729
 H         -5.073339        -1.642074        -4.220008
 H         -3.666250        -1.648599        -3.662295
 O          0.057948        -4.782334        -3.858235
 H          0.323873        -3.931083        -4.205924
 H         -0.843606        -4.893307        -4.160089
 O          0.804687        -5.058148         1.835241
 H          0.823589        -5.161805         0.883860
 H          0.577571        -5.927056         2.166378
 O         -1.390591         5.871001        -0.036625
 H         -0.887818         5.319445        -0.635988
 H         -2.059529         6.276423        -0.588337
 O         -2.103213        -4.622722         3.283142
 H         -2.327136        -3.695548         3.202896
 H         -1.209592        -4.624481         3.626173
 O         -1.756430         2.902667        -2.831598
 H         -2.237532         3.594100        -3.286233
 H         -1.148448         3.370528        -2.259152
 O          0.083635        -0.957969        -2.633894
 H          0.791024        -0.892846        -1.992342
 H         -0.686517        -0.620778        -2.176289
 O         -3.898772        -1.965272         4.044621
 H         -3.768795        -1.063644         3.750679
 H         -4.656186        -2.272722         3.546593
 O         -3.435218         0.570264         2.969196
 H         -3.055601         0.617646         2.091770
 H         -3.662536         1.475629         3.181026
 O          1.190479         3.715356         2.196692
 H          1.509242         3.009206         2.758808
 H          1.584539         3.538007         1.342587
 O          2.785968        -1.078288         4.327196
 H          2.470033        -1.446071         3.501877
 H          1.996957        -0.967656         4.857716
 O         -0.758086         1.932147         3.418203
 H         -1.449706         2.578559         3.559788
 H         -0.075759         2.410655         2.947363
 O          1.248248        -2.380386         2.487598
 H          1.217576        -1.846120         1.693966
 H          1.062471        -3.269361         2.185204
 O          0.003261         1.627640        -4.354211
 H          0.350742         1.182490        -3.581340
 H         -0.776135         2.084201        -4.037466
 O          0.009448        -0.573081         4.826897
 H         -0.447116         0.240712         4.613539
 H          0.156976        -0.994069         3.979998
 O         -2.559214         3.886430         3.150528
 H         -3.312877         4.408965         3.424717
 H         -2.810720         3.532574         2.297438
 O          0.463453         4.308552        -1.406994
 H          0.842334         4.990849        -1.961208
 H          1.217075         3.899911        -0.981203
 O          2.539373         1.910598         3.701242
 H          2.883163         2.561520         4.313076
 H          2.910121         1.080649         4.001179
 O          0.835254        -4.724312        -0.955626
 H          0.378595        -4.896367        -1.779087
 H          0.771873        -3.776218        -0.840162
 O         -1.996094        -0.034560        -5.737758
 H         -2.150589         0.258263        -4.839639
 H         -1.303803         0.541602        -6.061790
 O         -3.370857         0.604804        -3.392671
 H         -4.193648         0.823071        -2.954941
 H         -2.832135         1.390000        -3.295321
 O          1.294137         4.274794        -5.099639
 H          1.201301         3.364211        -4.819553
 H          1.636838         4.728484        -4.329602
 O          2.740377         2.274600        -2.970090
 H          2.909541         1.368464        -3.228035
 H          2.414300         2.211186        -2.072378
 O         -4.318522         4.117135         0.802017
 H         -5.050612         3.801530         1.331800
 H         -4.727079         4.661555         0.129025
 O          0.468578        -2.075036        -5.046437
 H          0.290889        -1.623115        -4.221560
 H          1.419742        -2.030284        -5.143995
