117

 C         -4.069432        -0.934350        -0.084726
 C         -2.940229        -1.728290         0.113981
 C         -1.643643        -1.124612         0.216417
 C         -1.532706         0.224921         0.072393
 C         -2.671592         1.049729        -0.159529
 C         -3.901576         0.468543        -0.209377
 H         -2.987747        -2.812238         0.160841
 H         -0.766003        -1.750516         0.348293
 H         -2.514814         2.116763        -0.287035
 H         -4.781138         1.085284        -0.368746
 O         -5.141973        -1.429742         0.041534
 C         -0.201430         0.924720        -0.058886
 H         -0.262109         2.006554        -0.160627
 C          2.182855         1.383282        -0.054474
 C          2.738887        -0.742202         0.221615
 C          1.057943         0.472293         0.010635
 N          1.428987        -0.838737         0.132156
 N          3.173864         0.541560         0.060741
 O          2.242446         2.624551        -0.168095
 C          4.570625         0.910538        -0.039099
 H          4.689956         1.860968         0.495350
 H          5.181573         0.092238         0.361300
 H          4.787914         1.163003        -1.084206
 C          3.646901        -1.911275        -0.017418
 H          4.311837        -2.151914         0.821116
 H          3.036748        -2.799892        -0.220547
 H          4.278919        -1.650569        -0.875191
 O         -2.232839        -0.049413         2.862467
 H         -1.977860        -0.347171         1.989222
 H         -2.177728        -0.833654         3.408506
 O          1.489921         4.337586         3.591320
 H          1.373271         4.177867         4.527863
 H          0.605794         4.505040         3.264961
 O          0.302184        -1.278451         5.495413
 H          0.810405        -0.525293         5.796570
 H          0.669532        -1.487302         4.636538
 O          0.839399         5.084750         0.716267
 H          1.666200         5.503558         0.955502
 H          1.074758         4.174063         0.538815
 O          3.457160         3.695317         1.973038
 H          2.619762         3.625037         2.431356
 H          3.285508         3.333388         1.103685
 O          3.206596        -5.645620         0.801186
 H          2.769386        -6.297847         0.253757
 H          4.138004        -5.760106         0.612505
 O          2.856757         3.780453        -2.708058
 H          3.742093         3.663214        -3.052535
 H          2.903459         3.451264        -1.810459
 O         -0.104932        -0.161886        -5.860196
 H         -0.337098         0.672612        -5.452832
 H         -0.848805        -0.367093        -6.426564
 O          4.458287         1.216376         3.203796
 H          5.382240         1.292884         2.965698
 H          4.064235         2.034220         2.900337
 O          0.496623        -2.560986        -1.820337
 H          0.664607        -1.942874        -1.109035
 H          0.845433        -3.393444        -1.501631
 O          3.750272        -1.302266         3.473375
 H          3.948476        -0.384355         3.287937
 H          2.806279        -1.376478         3.333370
 O          3.260612         0.641679        -5.803352
 H          2.492761         0.632083        -6.374794
 H          2.963958         0.220761        -4.996471
 O          2.473687        -0.288320        -3.285713
 H          1.645187        -0.056810        -2.865925
 H          3.014964        -0.631086        -2.574543
 O         -0.112021         3.392438        -3.613439
 H          0.790555         3.176181        -3.379300
 H         -0.218570         4.303624        -3.340270
 O          0.917979        -2.639795        -5.129204
 H          0.847829        -2.586285        -4.176079
 H          0.792636        -1.739606        -5.429503
 O         -5.047546        -1.542976         2.729301
 H         -4.726504        -2.444707         2.722717
 H         -4.955530        -1.249351         1.822908
 O         -3.326828         5.308415        -0.847261
 H         -2.475050         5.713490        -1.010416
 H         -3.431880         5.346249         0.103403
 O         -1.333235         4.896634         3.552563
 H         -1.388972         5.186217         4.463203
 H         -2.057006         5.344111         3.114210
 O         -0.951199         1.775372         4.511244
 H         -1.287249         1.162451         3.857309
 H         -1.592412         2.485919         4.525360
 O         -4.686651         0.817988         3.790104
 H         -3.817843         0.746489         3.394766
 H         -5.070783        -0.052213         3.683214
 O         -4.839604        -1.128438        -3.271250
 H         -3.978139        -1.541572        -3.329797
 H         -4.757373        -0.328470        -3.790403
 O         -3.892259         3.957341         1.813543
 H         -3.591078         4.840626         2.026445
 H         -3.678408         3.438037         2.588671
 O         -1.953257         1.342704        -3.471202
 H         -1.452550         2.069154        -3.842407
 H         -1.635848         1.268206        -2.571239
 O         -1.883837        -2.660281         3.834242
 H         -2.509033        -3.215590         3.368416
 H         -1.577090        -3.202443         4.561016
 O          1.184772        -2.209836         2.928652
 H          0.314840        -2.566790         2.749664
 H          1.695911        -2.421598         2.147545
 O         -2.519560        -2.696408        -3.651729
 H         -1.675425        -2.363130        -3.347431
 H         -2.440952        -2.712516        -4.605559
 O         -3.060073        -5.753234         0.788315
 H         -2.499328        -5.796893         0.013788
 H         -3.944859        -5.650182         0.437937
 O          0.891610        -4.241673         0.810225
 H          0.169612        -4.865626         0.735163
 H          1.662568        -4.785700         0.971128
 O         -1.165156        -6.115711        -1.111956
 H         -0.604893        -6.891789        -1.105707
 H         -0.741097        -5.519131        -1.728800
 O         -4.328937         1.527642        -4.768092
 H         -4.525614         2.416644        -4.472750
 H         -3.568848         1.265380        -4.248752
