117

 C         -4.069432        -0.934350        -0.084726
 C         -2.940229        -1.728290         0.113981
 C         -1.643643        -1.124612         0.216417
 C         -1.532706         0.224921         0.072393
 C         -2.671592         1.049729        -0.159529
 C         -3.901576         0.468543        -0.209377
 H         -2.987747        -2.812238         0.160841
 H         -0.766003        -1.750516         0.348293
 H         -2.514814         2.116763        -0.287035
 H         -4.781138         1.085284        -0.368746
 O         -5.141973        -1.429742         0.041534
 C         -0.201430         0.924720        -0.058886
 H         -0.262109         2.006554        -0.160627
 C          2.182855         1.383282        -0.054474
 C          2.738887        -0.742202         0.221615
 C          1.057943         0.472293         0.010635
 N          1.428987        -0.838737         0.132156
 N          3.173864         0.541560         0.060741
 O          2.242446         2.624551        -0.168095
 C          4.570625         0.910538        -0.039099
 H          4.689956         1.860968         0.495350
 H          5.181573         0.092238         0.361300
 H          4.787914         1.163003        -1.084206
 C          3.646901        -1.911275        -0.017418
 H          4.311837        -2.151914         0.821116
 H          3.036748        -2.799892        -0.220547
 H          4.278919        -1.650569        -0.875191
 O          2.968969         3.798093         4.099564
 H          2.409520         3.164824         4.549253
 H          3.772079         3.314080         3.907272
 O          0.876886        -1.758916         2.765356
 H          1.588292        -2.369838         2.957472
 H          0.969091        -1.569934         1.831537
 O         -0.875643         2.998875         3.135704
 H         -0.213618         2.536866         2.621405
 H         -1.489394         2.315585         3.405252
 O          3.183582         1.028611         5.550575
 H          3.864534         0.407149         5.293049
 H          2.455909         0.846600         4.955933
 O         -1.021407         3.203919        -2.233887
 H         -1.479216         2.431794        -2.566250
 H         -0.110139         3.073436        -2.496178
 O          5.150932         2.408276         3.262232
 H          5.615646         2.833953         2.541765
 H          5.773334         1.765326         3.602028
 O         -2.672706         1.398164        -3.626099
 H         -2.391856         1.665480        -4.501254
 H         -2.466491         0.464427        -3.583166
 O          4.124173         0.656054        -4.362032
 H          4.240348         1.414942        -4.933718
 H          4.441638        -0.084222        -4.879178
 O          3.458568        -2.571190        -3.146072
 H          3.657001        -2.488954        -4.078860
 H          3.509847        -1.676215        -2.810480
 O         -0.441714        -1.161456        -2.858414
 H          0.126512        -0.392154        -2.897466
 H         -0.793652        -1.154332        -1.968290
 O         -0.546540        -4.083534        -1.151129
 H         -1.040950        -3.431286        -0.654779
 H         -1.121169        -4.848512        -1.180155
 O          1.510873         1.172475        -3.545054
 H          1.968633         1.721030        -2.908049
 H          2.135015         1.067603        -4.263164
 O          0.960773        -4.161372        -3.516782
 H          0.313180        -4.052252        -2.820400
 H          1.588496        -3.453143        -3.373230
 O         -2.349099        -1.081962        -4.923806
 H         -2.656808        -1.963680        -4.713757
 H         -1.485234        -1.026115        -4.515331
 O         -3.564892        -5.225020        -0.344831
 H         -3.389983        -6.130357        -0.601744
 H         -3.548600        -5.240195         0.612108
 O         -1.248749         5.718264        -1.317949
 H         -1.386769         4.834803        -1.659533
 H         -0.368325         5.953456        -1.610817
 O         -0.436145        -5.028182         1.998249
 H         -0.973708        -4.290713         2.287031
 H          0.004689        -5.328894         2.792902
 O         -3.709107        -0.937766         3.080435
 H         -4.005085        -0.995981         2.172007
 H         -4.515170        -0.953351         3.596430
 O          2.589879         3.884312        -2.626443
 H          2.580037         3.400336        -1.800669
 H          2.187436         4.726706        -2.415153
 O         -2.331139         1.195317         4.513777
 H         -3.025526         1.764231         4.846031
 H         -2.795003         0.485987         4.068901
 O         -2.056599        -3.678700        -3.676115
 H         -1.993136        -4.633793        -3.675296
 H         -1.154464        -3.378811        -3.787706
 O         -5.295451         2.159285        -3.764229
 H         -4.578787         1.769799        -3.263307
 H         -4.870330         2.545016        -4.530203
 O          1.576791         4.408255         1.646982
 H          1.726444         4.150231         2.556520
 H          1.971406         3.705487         1.130623
 O          0.458719         0.138415         4.684397
 H          0.550342        -0.412738         3.907179
 H         -0.442927         0.457555         4.646769
 O          2.723939        -3.464356         3.891613
 H          2.309709        -3.050061         4.648584
 H          2.258579        -4.294426         3.788395
 O         -1.228694         2.136258        -5.858994
 H         -0.877829         2.319865        -6.730437
 H         -0.461486         2.138186        -5.286611
 O          3.665315        -4.976214        -1.646198
 H          3.565492        -4.183678        -2.173601
 H          2.790523        -5.141745        -1.294672
 O          1.380128        -5.782400        -0.227049
 H          0.725074        -5.314755        -0.745163
 H          1.118999        -5.631870         0.681458
 O         -1.607510        -2.650012         3.585526
 H         -2.259248        -1.999543         3.324068
 H         -0.770058        -2.270244         3.319664
 O         -0.841414         6.041947         1.170441
 H         -0.063882         5.506812         1.329512
 H         -0.894620         6.109681         0.217123
