117

 C         -4.069432        -0.934350        -0.084726
 C         -2.940229        -1.728290         0.113981
 C         -1.643643        -1.124612         0.216417
 C         -1.532706         0.224921         0.072393
 C         -2.671592         1.049729        -0.159529
 C         -3.901576         0.468543        -0.209377
 H         -2.987747        -2.812238         0.160841
 H         -0.766003        -1.750516         0.348293
 H         -2.514814         2.116763        -0.287035
 H         -4.781138         1.085284        -0.368746
 O         -5.141973        -1.429742         0.041534
 C         -0.201430         0.924720        -0.058886
 H         -0.262109         2.006554        -0.160627
 C          2.182855         1.383282        -0.054474
 C          2.738887        -0.742202         0.221615
 C          1.057943         0.472293         0.010635
 N          1.428987        -0.838737         0.132156
 N          3.173864         0.541560         0.060741
 O          2.242446         2.624551        -0.168095
 C          4.570625         0.910538        -0.039099
 H          4.689956         1.860968         0.495350
 H          5.181573         0.092238         0.361300
 H          4.787914         1.163003        -1.084206
 C          3.646901        -1.911275        -0.017418
 H          4.311837        -2.151914         0.821116
 H          3.036748        -2.799892        -0.220547
 H          4.278919        -1.650569        -0.875191
 O          2.784421         5.632064         2.495661
 H          3.393482         5.755147         1.767561
 H          1.945813         5.952052         2.163130
 O         -5.033959         1.378983         3.432732
 H         -5.294833         1.164756         2.537029
 H         -4.748874         0.544593         3.805222
 O          1.464643         2.703570         6.029896
 H          1.627914         2.483901         5.112661
 H          1.815849         3.588313         6.130472
 O         -1.309310        -4.689084        -1.808231
 H         -0.955149        -3.986283        -2.353090
 H         -1.300202        -5.459853        -2.375737
 O         -1.249387        -3.128449        -4.354412
 H         -0.313533        -2.928149        -4.371373
 H         -1.662635        -2.317201        -4.058884
 O         -0.456467        -5.039962         0.617371
 H         -1.006440        -4.771165        -0.118504
 H         -0.742339        -5.931410         0.816946
 O         -0.306624         3.628186         1.989010
 H         -0.970935         4.271689         2.235643
 H         -0.656419         2.792433         2.297869
 O          2.102775         2.195174        -2.988276
 H          2.269645         2.362803        -2.060759
 H          2.385885         1.290768        -3.122933
 O          1.904758         1.092873        -5.711122
 H          2.070365         0.694003        -4.856893
 H          2.171558         2.005978        -5.604867
 O          3.843782        -4.368911         2.997000
 H          3.678020        -5.030303         3.668800
 H          2.986619        -4.208235         2.602427
 O         -4.383945        -1.475124         4.326548
 H         -4.133988        -2.375724         4.533119
 H         -4.901037        -1.548076         3.524347
 O         -5.569057         3.075062        -1.597786
 H         -5.777323         3.894999        -1.149946
 H         -6.415612         2.744658        -1.898466
 O         -1.446856         1.361682         3.060987
 H         -1.456631         0.662411         2.407413
 H         -1.075461         0.953402         3.843039
 O          3.701036         4.524916        -0.895584
 H          3.365096         3.693034        -0.561895
 H          2.917911         5.021735        -1.132479
 O          1.475869        -1.291799         4.317602
 H          1.271270        -1.966390         3.670071
 H          0.656472        -0.809507         4.428110
 O         -4.070233         1.661315        -3.412858
 H         -4.529109         1.815648        -2.587118
 H         -4.768608         1.556819        -4.059067
 O          2.031825         3.081158         3.291369
 H          2.636266         3.798638         3.101351
 H          1.353647         3.155131         2.619928
 O          3.326072         0.617999         3.858959
 H          2.672618         1.283435         3.643490
 H          2.812408        -0.152978         4.099737
 O          1.166650        -3.376588         2.066324
 H          0.686582        -4.136855         1.738056
 H          1.007528        -2.693364         1.415081
 O         -2.008858        -0.716731        -3.406832
 H         -2.073018        -0.820848        -2.457477
 H         -2.605602         0.003682        -3.609645
 O         -3.174450         5.240565        -0.330881
 H         -2.638925         4.933242        -1.062315
 H         -3.688317         4.475535        -0.072231
 O         -3.446844         3.562300         4.338228
 H         -4.202361         3.004069         4.154367
 H         -2.718821         3.136889         3.885195
 O          0.918945         4.937590        -0.070339
 H          1.546176         4.236689         0.107294
 H          0.389730         4.992747         0.725351
 O          1.488456        -0.493951        -2.978573
 H          1.228050        -0.723518        -2.086542
 H          1.756568        -1.324764        -3.371125
 O         -1.922150         3.741076        -2.299894
 H         -2.562937         3.261330        -2.824745
 H         -1.137875         3.770890        -2.847850
 O          0.284654         4.228587        -3.617841
 H          0.825040         3.493275        -3.328826
 H          0.654844         4.479827        -4.464050
 O          2.293437        -5.653154         0.357813
 H          2.255847        -5.082195        -0.409536
 H          1.394408        -5.673054         0.685816
 O         -0.469641        -0.105806        -5.878795
 H         -0.607270        -0.082557        -4.931826
 H          0.356756         0.358422        -6.012185
 O         -0.532445         0.429059         5.424465
 H          0.141500         0.961343         5.847200
 H         -1.026168         0.047139         6.150143
 O          1.440307        -3.123411        -3.911234
 H          1.635448        -2.960416        -4.834047
 H          2.139005        -3.708472        -3.618388
