117

 C         -4.069432        -0.934350        -0.084726
 C         -2.940229        -1.728290         0.113981
 C         -1.643643        -1.124612         0.216417
 C         -1.532706         0.224921         0.072393
 C         -2.671592         1.049729        -0.159529
 C         -3.901576         0.468543        -0.209377
 H         -2.987747        -2.812238         0.160841
 H         -0.766003        -1.750516         0.348293
 H         -2.514814         2.116763        -0.287035
 H         -4.781138         1.085284        -0.368746
 O         -5.141973        -1.429742         0.041534
 C         -0.201430         0.924720        -0.058886
 H         -0.262109         2.006554        -0.160627
 C          2.182855         1.383282        -0.054474
 C          2.738887        -0.742202         0.221615
 C          1.057943         0.472293         0.010635
 N          1.428987        -0.838737         0.132156
 N          3.173864         0.541560         0.060741
 O          2.242446         2.624551        -0.168095
 C          4.570625         0.910538        -0.039099
 H          4.689956         1.860968         0.495350
 H          5.181573         0.092238         0.361300
 H          4.787914         1.163003        -1.084206
 C          3.646901        -1.911275        -0.017418
 H          4.311837        -2.151914         0.821116
 H          3.036748        -2.799892        -0.220547
 H          4.278919        -1.650569        -0.875191
 O          0.399591         5.561473         2.527102
 H          0.310479         5.328721         1.602917
 H          0.038919         4.810828         2.998991
 O         -0.508105         1.158602         2.958883
 H         -0.881772         2.037402         2.893187
 H         -1.048850         0.624312         2.377195
 O          3.139062         3.476088         2.384249
 H          2.614784         3.045216         3.059313
 H          2.724288         3.221492         1.560007
 O          2.090410         0.993155         4.021221
 H          1.306371         0.855267         3.489712
 H          1.950069         0.453860         4.799488
 O         -1.780019         3.914044         2.482500
 H         -1.440737         4.389086         1.723913
 H         -2.306325         4.559903         2.953777
 O          4.444318         3.832434        -2.074007
 H          3.720886         3.226554        -2.234580
 H          4.154195         4.360032        -1.329895
 O          1.660274         5.122195        -0.670397
 H          1.873061         4.192771        -0.585997
 H          2.464826         5.575875        -0.419201
 O          4.783847         2.028262         4.335749
 H          3.872947         1.737380         4.292385
 H          4.994996         2.016034         5.269289
 O          2.676669         1.600220        -3.214036
 H          3.159818         0.780524        -3.318428
 H          1.933467         1.517955        -3.811626
 O          1.430301        -1.741168        -2.865319
 H          2.240598        -1.589065        -3.351647
 H          1.636661        -1.479106        -1.968117
 O          6.376580         0.085021         2.597467
 H          5.865844         0.696179         3.128380
 H          6.676406         0.606978         1.853224
 O          1.574996        -0.638236         5.958473
 H          2.042205        -1.445438         6.173822
 H          0.665656        -0.816551         6.198343
 O         -0.100632        -3.826397        -3.332952
 H         -0.958812        -3.460718        -3.118387
 H          0.515167        -3.117786        -3.146156
 O          3.557401        -1.127294        -4.233900
 H          3.115274        -1.534240        -4.978985
 H          4.464738        -1.424434        -4.302320
 O         -1.041497        -0.437194        -2.917069
 H         -0.179137        -0.852451        -2.928337
 H         -1.181126        -0.199941        -2.000311
 O         -2.650000        -3.600635        -2.458474
 H         -2.980119        -3.925889        -1.620941
 H         -2.586107        -2.653067        -2.339036
 O         -1.773827         4.255027        -2.878702
 H         -1.663020         5.190537        -3.048336
 H         -1.450961         3.827851        -3.672119
 O          1.145038        -4.276004         0.722090
 H          1.616962        -3.943789         1.485733
 H          0.656692        -3.520518         0.394995
 O         -6.174256        -1.443927         2.514719
 H         -5.727262        -1.642076         1.691820
 H         -5.840605        -2.095502         3.131453
 O         -4.265296         1.003775         4.566557
 H         -4.747000         0.295182         4.139839
 H         -4.780419         1.789010         4.381388
 O         -2.082415         1.404277         6.107151
 H         -2.978272         1.108674         5.945007
 H         -1.661650         1.376013         5.247856
 O         -2.458844         0.552504        -5.188820
 H         -2.919466         1.270776        -4.755062
 H         -2.122705         0.015546        -4.471242
 O         -5.726637         3.362860         0.859110
 H         -6.308637         3.805121         1.477100
 H         -5.043131         2.977698         1.407471
 O         -0.942136        -3.021901         4.823551
 H         -0.403870        -2.730795         4.087507
 H         -0.936604        -2.282563         5.431482
 O         -3.958342         2.188126        -3.744249
 H         -3.909931         2.848826        -3.053333
 H         -4.745708         1.684041        -3.538862
 O         -1.256819        -1.042676         6.572533
 H         -1.227910        -1.225442         7.511677
 H         -1.403456        -0.098424         6.516689
 O          0.398505        -1.779943         2.821774
 H          1.301362        -2.021240         3.028788
 H          0.478423        -1.128766         2.124769
 O          2.686075        -3.020967         3.147009
 H          2.712470        -3.702767         3.818340
 H          3.604730        -2.799969         2.993832
 O         -2.109743        -4.242175         2.642471
 H         -2.908999        -3.720156         2.712587
 H         -1.447985        -3.730672         3.107954
 O         -1.067174         4.721558        -0.155394
 H         -0.159158         4.800189        -0.447893
 H         -1.511191         4.268010        -0.871897
