117

 C         -4.069432        -0.934350        -0.084726
 C         -2.940229        -1.728290         0.113981
 C         -1.643643        -1.124612         0.216417
 C         -1.532706         0.224921         0.072393
 C         -2.671592         1.049729        -0.159529
 C         -3.901576         0.468543        -0.209377
 H         -2.987747        -2.812238         0.160841
 H         -0.766003        -1.750516         0.348293
 H         -2.514814         2.116763        -0.287035
 H         -4.781138         1.085284        -0.368746
 O         -5.141973        -1.429742         0.041534
 C         -0.201430         0.924720        -0.058886
 H         -0.262109         2.006554        -0.160627
 C          2.182855         1.383282        -0.054474
 C          2.738887        -0.742202         0.221615
 C          1.057943         0.472293         0.010635
 N          1.428987        -0.838737         0.132156
 N          3.173864         0.541560         0.060741
 O          2.242446         2.624551        -0.168095
 C          4.570625         0.910538        -0.039099
 H          4.689956         1.860968         0.495350
 H          5.181573         0.092238         0.361300
 H          4.787914         1.163003        -1.084206
 C          3.646901        -1.911275        -0.017418
 H          4.311837        -2.151914         0.821116
 H          3.036748        -2.799892        -0.220547
 H          4.278919        -1.650569        -0.875191
 O         -4.611984         2.029996         3.267693
 H         -5.221900         2.328128         3.942492
 H         -5.127205         1.431653         2.726616
 O          1.746110        -3.466172         2.686668
 H          1.023381        -2.882715         2.917912
 H          1.391198        -4.024602         1.994986
 O          1.027068         4.804534        -1.194427
 H          1.647138         4.175168        -0.826128
 H          1.502296         5.213883        -1.917494
 O          2.280860         0.182460         3.186676
 H          3.106639        -0.221029         2.919243
 H          2.331556         0.221394         4.141739
 O          3.324159         2.128682        -4.722047
 H          4.165757         2.584662        -4.716989
 H          2.672475         2.829055        -4.753966
 O          0.994809        -2.672824        -2.169584
 H          1.138900        -1.854482        -1.694416
 H          0.433980        -3.189945        -1.591406
 O          2.051126        -0.197828         5.718866
 H          2.081273         0.511954         6.360376
 H          1.515699        -0.873714         6.134468
 O          1.520364         2.802024         2.657085
 H          1.623710         1.880517         2.894526
 H          1.817134         2.849936         1.748316
 O          4.939994        -1.316545         3.455549
 H          4.163415        -1.774017         3.777843
 H          4.926002        -0.473033         3.907793
 O         -0.182849        -1.783679         3.200611
 H         -1.125039        -1.634975         3.280586
 H          0.160938        -0.960521         2.853546
 O         -1.121012         1.993260        -6.206443
 H         -0.948683         1.126765        -6.574845
 H         -1.893250         2.304921        -6.678404
 O         -0.926202        -4.792472        -0.693686
 H         -0.488940        -5.610941        -0.928509
 H         -1.338402        -4.974849         0.150744
 O         -0.920359         2.853110         3.754427
 H         -0.016940         2.629431         3.530748
 H         -1.376565         2.011948         3.777973
 O          3.433561        -1.841108        -3.605179
 H          2.902530        -1.066924        -3.791940
 H          2.802455        -2.500659        -3.317209
 O         -1.874844        -0.271756        -2.817685
 H         -1.261494         0.393746        -3.129357
 H         -1.629878        -0.413800        -1.903328
 O         -2.285003        -4.710054        -3.217059
 H         -1.789756        -5.252396        -3.830920
 H         -1.625956        -4.371381        -2.611097
 O         -1.836629        -4.927879         3.415218
 H         -0.961266        -4.900870         3.028896
 H         -2.430456        -4.901749         2.664940
 O         -2.169341         0.492083         4.065540
 H         -2.606134         0.294039         4.893925
 H         -2.859197         0.859273         3.512819
 O         -2.936575         4.710997         3.269554
 H         -2.296250         4.051596         3.536776
 H         -2.437460         5.325141         2.731091
 O          1.786502         0.408225        -3.218030
 H          1.066318         0.992533        -2.981070
 H          2.354537         0.941491        -3.774084
 O         -0.353612        -2.132568        -4.350232
 H         -1.019231        -1.479215        -4.135025
 H          0.156787        -2.228339        -3.546148
 O         -1.525414         4.525542        -2.398128
 H         -2.302545         4.676268        -1.860003
 H         -0.790053         4.669509        -1.802519
 O         -4.014947         4.206952        -0.790436
 H         -4.771009         4.211379        -1.377445
 H         -4.389108         4.323134         0.082912
 O         -0.033686         6.020007         2.738207
 H          0.189010         5.108117         2.925541
 H         -0.517968         6.311822         3.510572
 O         -3.520355        -5.239408         1.395605
 H         -3.699179        -5.017786         0.481747
 H         -3.714255        -6.174711         1.457596
 O         -3.762809         0.072245        -4.853359
 H         -3.286924        -0.001786        -4.026144
 H         -3.077794         0.127078        -5.519677
 O         -5.073601        -3.201020         2.259764
 H         -4.603789        -3.965342         1.926113
 H         -5.039673        -2.567375         1.543121
 O         -4.325373        -4.680218        -1.199253
 H         -4.690150        -5.208500        -1.909245
 H         -3.451885        -4.437062        -1.506050
 O         -0.590291         2.025883        -3.518810
 H         -0.807336         2.102345        -4.447937
 H         -0.776145         2.892501        -3.157330
 O          0.429160        -2.549067         6.026945
 H         -0.037984        -3.327502         6.330338
 H          0.213331        -2.487701         5.096416
