117

 C         -4.069432        -0.934350        -0.084726
 C         -2.940229        -1.728290         0.113981
 C         -1.643643        -1.124612         0.216417
 C         -1.532706         0.224921         0.072393
 C         -2.671592         1.049729        -0.159529
 C         -3.901576         0.468543        -0.209377
 H         -2.987747        -2.812238         0.160841
 H         -0.766003        -1.750516         0.348293
 H         -2.514814         2.116763        -0.287035
 H         -4.781138         1.085284        -0.368746
 O         -5.141973        -1.429742         0.041534
 C         -0.201430         0.924720        -0.058886
 H         -0.262109         2.006554        -0.160627
 C          2.182855         1.383282        -0.054474
 C          2.738887        -0.742202         0.221615
 C          1.057943         0.472293         0.010635
 N          1.428987        -0.838737         0.132156
 N          3.173864         0.541560         0.060741
 O          2.242446         2.624551        -0.168095
 C          4.570625         0.910538        -0.039099
 H          4.689956         1.860968         0.495350
 H          5.181573         0.092238         0.361300
 H          4.787914         1.163003        -1.084206
 C          3.646901        -1.911275        -0.017418
 H          4.311837        -2.151914         0.821116
 H          3.036748        -2.799892        -0.220547
 H          4.278919        -1.650569        -0.875191
 O          2.267156         3.850199        -2.733707
 H          3.199992         3.798798        -2.942043
 H          2.196519         3.473471        -1.856600
 O         -4.792484         2.538323        -3.598736
 H         -4.182994         2.267972        -2.911958
 H         -4.488549         2.080533        -4.382498
 O         -4.250845        -3.197785         2.465508
 H         -4.555386        -2.689992         1.713421
 H         -4.087640        -2.544209         3.145533
 O         -2.145355         4.110066         2.858810
 H         -2.199341         3.158282         2.944981
 H         -1.280583         4.333079         3.203291
 O         -2.291774         5.722298         0.551645
 H         -2.360409         5.221978         1.364788
 H         -2.884145         5.277070        -0.054245
 O         -3.242197        -1.720054        -4.508396
 H         -3.925740        -1.929952        -3.872045
 H         -3.514720        -0.883531        -4.885477
 O          0.556867        -5.464430        -1.402403
 H          1.297151        -6.061422        -1.293720
 H          0.684160        -5.080490        -2.269938
 O          0.421226         5.022860         0.134882
 H          0.252122         4.176182        -0.278366
 H         -0.448136         5.395203         0.282541
 O         -3.423742         4.465304        -1.657398
 H         -2.861840         3.824649        -2.093357
 H         -4.287376         4.052972        -1.638716
 O         -3.064315        -5.271354         1.356688
 H         -3.402558        -4.513520         1.833668
 H         -2.133227        -5.083640         1.238060
 O         -1.749129         2.585290        -3.150564
 H         -1.289922         1.745518        -3.162609
 H         -1.158173         3.187918        -3.602049
 O          3.340791         2.228900         4.031857
 H          2.890018         2.754273         4.692930
 H          4.140229         2.719298         3.840445
 O          0.837711        -2.467939        -2.520714
 H          0.936540        -2.007297        -1.687483
 H          1.721778        -2.764572        -2.736730
 O         -0.334973        -0.060033        -3.297985
 H         -1.199593        -0.405984        -3.076670
 H          0.226625        -0.833495        -3.348916
 O         -3.105111        -1.279773         4.240189
 H         -2.269939        -1.714580         4.412420
 H         -2.879761        -0.546356         3.667870
 O          1.059369        -1.861596         2.780151
 H          1.652166        -2.517915         2.414000
 H          0.911174        -1.245767         2.062500
 O         -1.117680         1.893880        -6.002495
 H         -1.072572         2.787343        -5.662027
 H         -0.203492         1.621917        -6.083293
 O         -0.479602        -4.523603         1.057545
 H          0.227151        -3.892159         1.191755
 H         -0.339839        -4.854531         0.170311
 O          3.265546        -3.662981        -2.856258
 H          3.933530        -3.831654        -3.520771
 H          3.736520        -3.715144        -2.024576
 O          0.817622         0.946593         3.155289
 H          1.085969         0.083478         3.470335
 H          1.555251         1.518765         3.366844
 O          4.107415         4.387929        -0.298569
 H          3.396911         3.756310        -0.186888
 H          4.559760         4.391217         0.544998
 O          3.619071        -0.470401        -5.811052
 H          4.142793        -1.231242        -6.062189
 H          3.452111        -0.592489        -4.876467
 O         -2.230619         1.246257         5.856192
 H         -3.139298         1.404032         6.112398
 H         -2.243024         1.275262         4.899511
 O         -3.282777        -4.942909        -2.671058
 H         -2.690493        -4.440448        -3.230491
 H         -2.702964        -5.447117        -2.100250
 O         -0.851340        -3.709523        -4.141386
 H         -1.498477        -3.055002        -4.404155
 H         -0.259276        -3.238880        -3.554711
 O         -0.577010        -2.062820         5.086271
 H         -0.094523        -1.800655         4.302238
 H         -0.263064        -1.470853         5.769825
 O          2.384914        -4.174445         2.327272
 H          1.738935        -4.572794         2.910591
 H          3.210069        -4.602375         2.555803
 O          0.066760         5.194375         3.699617
 H          0.601669         5.631037         3.036722
 H          0.694043         4.695740         4.223175
 O         -5.316323        -1.687244        -2.635843
 H         -5.956202        -1.081388        -3.009642
 H         -5.472077        -1.647956        -1.692217
 O         -1.894345         1.374192         2.988243
 H         -0.974251         1.451483         3.240606
 H         -1.869067         1.108241         2.069078
