117

 C         -4.069432        -0.934350        -0.084726
 C         -2.940229        -1.728290         0.113981
 C         -1.643643        -1.124612         0.216417
 C         -1.532706         0.224921         0.072393
 C         -2.671592         1.049729        -0.159529
 C         -3.901576         0.468543        -0.209377
 H         -2.987747        -2.812238         0.160841
 H         -0.766003        -1.750516         0.348293
 H         -2.514814         2.116763        -0.287035
 H         -4.781138         1.085284        -0.368746
 O         -5.141973        -1.429742         0.041534
 C         -0.201430         0.924720        -0.058886
 H         -0.262109         2.006554        -0.160627
 C          2.182855         1.383282        -0.054474
 C          2.738887        -0.742202         0.221615
 C          1.057943         0.472293         0.010635
 N          1.428987        -0.838737         0.132156
 N          3.173864         0.541560         0.060741
 O          2.242446         2.624551        -0.168095
 C          4.570625         0.910538        -0.039099
 H          4.689956         1.860968         0.495350
 H          5.181573         0.092238         0.361300
 H          4.787914         1.163003        -1.084206
 C          3.646901        -1.911275        -0.017418
 H          4.311837        -2.151914         0.821116
 H          3.036748        -2.799892        -0.220547
 H          4.278919        -1.650569        -0.875191
 O         -0.897963         3.564696        -2.449726
 H         -0.294507         3.664355        -1.713425
 H         -0.569222         4.171843        -3.112700
 O          2.993699        -1.369857         4.686541
 H          3.763152        -1.855762         4.983309
 H          3.140315        -0.476314         4.996889
 O          2.155244         2.753680        -2.981684
 H          3.098598         2.653186        -2.854347
 H          1.776765         2.572215        -2.121418
 O         -5.322894         2.639552        -2.488169
 H         -5.423689         2.715920        -3.436979
 H         -6.175999         2.333245        -2.180567
 O         -5.244491        -3.206787         2.378544
 H         -5.092119        -2.698657         1.581789
 H         -4.729532        -2.759447         3.050060
 O         -0.721684         3.309006         2.287962
 H         -0.788790         2.613164         2.941822
 H         -1.613936         3.414229         1.957743
 O         -3.504427        -3.469848        -2.800781
 H         -4.292192        -3.245712        -3.296180
 H         -3.603449        -3.004691        -1.970085
 O         -1.076195        -1.042213         5.396553
 H         -0.542039        -1.421495         4.698660
 H         -0.886121        -0.104747         5.361055
 O          0.823135        -4.623952        -2.037699
 H          1.461375        -4.892447        -2.698600
 H          0.900277        -3.670472        -2.003666
 O          0.393739         4.776686        -0.198839
 H          1.157676         4.206717        -0.110714
 H         -0.056723         4.705277         0.642717
 O         -4.420824         4.140479        -0.432037
 H         -4.959125         3.610480        -1.019886
 H         -4.003217         4.783934        -1.004578
 O         -1.727608        -5.743225         2.061899
 H         -2.042163        -4.920477         2.436564
 H         -0.936909        -5.500242         1.580248
 O          0.692672         1.289271        -4.962432
 H          1.201257         1.594405        -4.211123
 H          0.915900         0.361874        -5.042041
 O          0.722186         3.902257         4.411438
 H          0.894609         4.821641         4.614504
 H          0.087857         3.930066         3.695139
 O          0.614370        -1.444478        -2.752322
 H          0.484512        -0.939164        -1.949808
 H          1.556102        -1.395385        -2.916528
 O         -3.023728        -0.746885        -3.482499
 H         -3.397401        -0.090572        -2.894406
 H         -2.261647        -0.315749        -3.869262
 O          4.102296         0.553525        -5.066353
 H          4.112024         1.502665        -5.189923
 H          5.014346         0.287450        -5.182968
 O         -3.747077        -1.240966         3.677000
 H         -2.821152        -1.107906         3.879955
 H         -4.018804        -0.426803         3.253284
 O          0.792060        -1.256217         3.028145
 H          1.559818        -1.016855         3.547266
 H          1.075689        -1.153575         2.119711
 O         -3.829324         3.448794         2.096149
 H         -4.103671         3.778340         1.240366
 H         -4.049565         4.153062         2.705849
 O          0.639407        -5.524133         0.541721
 H          1.313186        -5.030216         1.008947
 H          0.948758        -5.553881        -0.363625
 O          2.223369         1.368796         3.832172
 H          2.709867         1.733441         3.092857
 H          1.515994         1.995118         3.985708
 O          3.535793         5.121272        -0.675810
 H          3.211702         4.243193        -0.475370
 H          3.425689         5.609288         0.140247
 O          3.243539        -1.958734        -3.688395
 H          3.070379        -1.401471        -4.447148
 H          4.170562        -1.818992        -3.495171
 O         -1.296027        -2.877846        -4.692309
 H         -2.035369        -2.716727        -4.106096
 H         -0.569888        -2.392171        -4.301064
 O         -1.035613        -3.290355         3.056055
 H         -0.220822        -3.591857         3.457857
 H         -0.789483        -2.495628         2.582705
 O          2.664146        -5.007715         2.353600
 H          2.609126        -4.610748         3.222864
 H          3.589843        -4.942874         2.118839
 O         -5.096081         0.997985         2.751621
 H         -4.688578         1.693537         2.235502
 H         -6.001814         0.970177         2.443226
 O         -2.873014         2.669690        -3.814627
 H         -3.524102         2.642241        -3.113511
 H         -2.052266         2.883807        -3.371054
 O         -1.002320         0.566470         2.897430
 H         -0.420735        -0.186795         3.000292
 H         -1.266238         0.541463         1.977675
