117

 C         -4.069432        -0.934350        -0.084726
 C         -2.940229        -1.728290         0.113981
 C         -1.643643        -1.124612         0.216417
 C         -1.532706         0.224921         0.072393
 C         -2.671592         1.049729        -0.159529
 C         -3.901576         0.468543        -0.209377
 H         -2.987747        -2.812238         0.160841
 H         -0.766003        -1.750516         0.348293
 H         -2.514814         2.116763        -0.287035
 H         -4.781138         1.085284        -0.368746
 O         -5.141973        -1.429742         0.041534
 C         -0.201430         0.924720        -0.058886
 H         -0.262109         2.006554        -0.160627
 C          2.182855         1.383282        -0.054474
 C          2.738887        -0.742202         0.221615
 C          1.057943         0.472293         0.010635
 N          1.428987        -0.838737         0.132156
 N          3.173864         0.541560         0.060741
 O          2.242446         2.624551        -0.168095
 C          4.570625         0.910538        -0.039099
 H          4.689956         1.860968         0.495350
 H          5.181573         0.092238         0.361300
 H          4.787914         1.163003        -1.084206
 C          3.646901        -1.911275        -0.017418
 H          4.311837        -2.151914         0.821116
 H          3.036748        -2.799892        -0.220547
 H          4.278919        -1.650569        -0.875191
 O         -3.773667         0.492861         4.674395
 H         -4.028283         0.246077         5.563496
 H         -3.396698         1.367781         4.767340
 O          3.189674         3.586829         4.290810
 H          2.797843         2.960412         4.899334
 H          3.967895         3.141068         3.956293
 O          1.121026        -1.064094         3.149588
 H          1.665239        -1.796329         3.439232
 H          1.364593        -0.932420         2.233307
 O         -1.994467         2.798285         2.780041
 H         -1.880959         3.198132         1.917793
 H         -1.783629         1.874377         2.645245
 O          2.996108         0.506545         4.341234
 H          2.492711        -0.126678         3.829517
 H          2.792583         0.294280         5.252142
 O         -0.488513         2.036738        -4.264699
 H         -0.890315         1.197631        -4.489831
 H          0.311803         1.800864        -3.795561
 O          4.086713        -0.306587        -3.441390
 H          4.777627        -0.085359        -4.065830
 H          4.505264        -0.229909        -2.583971
 O          0.292411         4.877797         4.062304
 H          0.549556         4.139621         4.614758
 H         -0.352076         4.510928         3.457098
 O          2.723239        -2.988217        -4.381595
 H          3.308000        -3.131288        -5.125783
 H          2.982476        -2.134918        -4.033874
 O          0.229009        -1.246599        -2.678303
 H          0.429200        -0.372907        -3.014190
 H          0.485341        -1.213416        -1.756660
 O         -1.091954        -4.850902        -2.283168
 H         -1.913171        -4.412586        -2.506142
 H         -1.355439        -5.586005        -1.729607
 O          1.852151         1.306321        -3.377697
 H          2.339633         2.067260        -3.062160
 H          2.527557         0.687520        -3.655449
 O          0.024221        -3.924670        -4.732017
 H         -0.255872        -4.087950        -3.831395
 H          0.930045        -3.626163        -4.650746
 O         -2.508600        -0.377410        -3.040934
 H         -1.663628        -0.826185        -3.011679
 H         -2.680263        -0.130527        -2.132193
 O         -3.894749        -4.501214        -2.357412
 H         -4.119801        -5.182550        -1.723879
 H         -4.378456        -3.729977        -2.061687
 O         -1.272374         4.459370        -2.406594
 H         -1.831074         4.275763        -3.161827
 H         -0.544368         3.843775        -2.491931
 O          0.878654        -5.310893         1.544664
 H          0.201923        -4.660701         1.733130
 H          1.316110        -5.451577         2.384350
 O         -5.191959        -2.371455         2.467857
 H         -5.189501        -2.047994         1.566969
 H         -5.871876        -1.858480         2.904665
 O         -4.234413         4.148064         3.094833
 H         -3.441679         3.620064         2.999855
 H         -4.557352         3.939715         3.971495
 O          2.539403         4.333140        -2.316057
 H          2.634052         3.932296        -1.451998
 H          2.032609         5.129342        -2.156509
 O         -1.117730         0.482365         3.528128
 H         -1.771933        -0.127433         3.186958
 H         -0.285294         0.020114         3.430103
 O          1.173856         4.584765         1.062065
 H          1.425872         4.447011         1.975161
 H          1.495012         3.807433         0.605072
 O         -4.445562         4.023499        -1.639891
 H         -4.020256         4.709332        -2.154654
 H         -5.103640         3.654961        -2.229250
 O         -1.503409         0.272809         6.214594
 H         -1.033511         0.168988         5.387157
 H         -2.038062         1.056882         6.089659
 O          2.787347        -3.293730         4.116850
 H          2.973987        -2.874757         4.957003
 H          2.500081        -4.176996         4.348259
 O          3.834050        -4.719644        -2.251347
 H          3.387315        -4.020904        -2.729281
 H          3.135566        -5.168551        -1.775074
 O          1.417297        -5.899260        -0.953339
 H          0.674775        -5.594657        -1.474979
 H          1.155917        -5.736857        -0.046951
 O         -2.565907        -1.910518         3.547133
 H         -3.436398        -1.865411         3.151606
 H         -2.146511        -2.656671         3.118652
 O         -4.207335        -0.881027        -5.220824
 H         -3.809698        -0.478841        -4.448579
 H         -3.465629        -1.212772        -5.726838
 O         -1.738591         4.426839         0.607208
 H         -1.811904         5.379365         0.547604
 H         -1.664515         4.134995        -0.301401
