117

 C         -4.069432        -0.934350        -0.084726
 C         -2.940229        -1.728290         0.113981
 C         -1.643643        -1.124612         0.216417
 C         -1.532706         0.224921         0.072393
 C         -2.671592         1.049729        -0.159529
 C         -3.901576         0.468543        -0.209377
 H         -2.987747        -2.812238         0.160841
 H         -0.766003        -1.750516         0.348293
 H         -2.514814         2.116763        -0.287035
 H         -4.781138         1.085284        -0.368746
 O         -5.141973        -1.429742         0.041534
 C         -0.201430         0.924720        -0.058886
 H         -0.262109         2.006554        -0.160627
 C          2.182855         1.383282        -0.054474
 C          2.738887        -0.742202         0.221615
 C          1.057943         0.472293         0.010635
 N          1.428987        -0.838737         0.132156
 N          3.173864         0.541560         0.060741
 O          2.242446         2.624551        -0.168095
 C          4.570625         0.910538        -0.039099
 H          4.689956         1.860968         0.495350
 H          5.181573         0.092238         0.361300
 H          4.787914         1.163003        -1.084206
 C          3.646901        -1.911275        -0.017418
 H          4.311837        -2.151914         0.821116
 H          3.036748        -2.799892        -0.220547
 H          4.278919        -1.650569        -0.875191
 O          1.039714         2.431161         3.485428
 H          1.097354         1.476762         3.530516
 H          1.474918         2.735285         4.281879
 O          0.621169         1.331177        -3.289613
 H          0.825940         1.517205        -2.373264
 H          0.054891         2.053986        -3.559998
 O          4.697103         0.497348        -4.713795
 H          4.572648         0.152892        -5.598156
 H          3.818563         0.504912        -4.333868
 O          3.536199        -0.831582         5.440060
 H          3.717124        -1.053230         4.526621
 H          3.947355         0.023747         5.564938
 O          0.215986        -2.616102        -2.398802
 H          0.420596        -1.969922        -1.722919
 H          1.021869        -3.123155        -2.497201
 O          0.872571        -1.608293         6.081230
 H          0.875053        -2.508914         5.757027
 H          1.760440        -1.291515         5.915182
 O          0.732131        -0.331205         3.035835
 H          0.864789        -0.428170         2.092844
 H          1.312091        -0.984147         3.427685
 O          2.326654        -4.470792        -1.929258
 H          3.208814        -4.609697        -1.584684
 H          2.182317        -5.208136        -2.522321
 O          2.784312         3.726807         1.976637
 H          2.670619         3.411534         1.080029
 H          2.152951         3.222478         2.489731
 O         -2.449181        -0.621438        -3.114575
 H         -1.628154        -0.206233        -3.378674
 H         -2.768365        -0.082198        -2.390993
 O         -1.030238        -4.638639        -0.759800
 H         -0.287348        -4.069047        -0.959578
 H         -0.693990        -5.525337        -0.889940
 O         -1.177088         3.635623         1.759670
 H         -1.703130         2.854327         1.930231
 H         -0.339267         3.458310         2.187275
 O         -3.314797         5.264359         1.095573
 H         -2.610522         4.686526         1.389404
 H         -3.297399         5.996028         1.712494
 O         -3.651029         3.523005        -2.596865
 H         -4.275959         3.003684        -3.102829
 H         -4.193175         4.148387        -2.116024
 O          0.151349        -2.093606        -5.261979
 H         -0.112256        -2.491782        -4.432401
 H          0.836978        -1.470498        -5.021397
 O         -1.692433        -1.410468         3.193626
 H         -1.847970        -1.286250         2.257353
 H         -1.120059        -0.683826         3.439814
 O         -2.639950        -3.201068         5.372097
 H         -2.317890        -2.628601         4.675827
 H         -3.481181        -2.820763         5.624939
 O         -0.439685         5.814296        -1.627787
 H         -0.679511         6.725934        -1.794008
 H         -0.850089         5.607968        -0.788008
 O         -3.219928         0.240775         5.702583
 H         -3.065495         0.305428         6.645029
 H         -2.493964        -0.291311         5.376865
 O          2.393718         4.884734        -1.493252
 H          2.375987         4.032996        -1.056835
 H          1.691318         5.382766        -1.075123
 O          2.725906        -2.285238         3.307690
 H          3.031732        -2.458570         2.417376
 H          2.745502        -3.139879         3.738312
 O         -3.450235        -5.160808         0.658974
 H         -3.651363        -5.047400        -0.269960
 H         -2.495284        -5.217402         0.692102
 O          1.922286         0.459016        -5.509067
 H          1.531425         0.755774        -4.687243
 H          1.310413         0.751382        -6.184614
 O         -2.693875         0.033032        -6.238596
 H         -2.672323        -0.166496        -5.302671
 H         -3.312937        -0.598985        -6.604036
 O         -5.023217        -1.477466         2.774200
 H         -4.949633        -1.218023         1.855774
 H         -4.868773        -2.422111         2.769348
 O         -6.191252        -0.659866        -2.468079
 H         -5.397475        -0.225442        -2.780210
 H         -5.955688        -0.996995        -1.603737
 O         -3.396125         2.041928         2.369991
 H         -4.196017         1.983279         1.847530
 H         -3.658312         1.749799         3.243004
 O         -3.050888        -3.173285        -2.793274
 H         -2.852309        -2.302648        -3.137934
 H         -2.467673        -3.271700        -2.040674
 O         -1.085917         3.535191        -2.981140
 H         -1.993390         3.326415        -2.759466
 H         -0.996724         4.465464        -2.774095
 O         -4.225226        -4.045989         3.008122
 H         -3.853167        -4.340130         2.176685
 H         -3.529745        -4.196527         3.648336
