117

 C         -4.069432        -0.934350        -0.084726
 C         -2.940229        -1.728290         0.113981
 C         -1.643643        -1.124612         0.216417
 C         -1.532706         0.224921         0.072393
 C         -2.671592         1.049729        -0.159529
 C         -3.901576         0.468543        -0.209377
 H         -2.987747        -2.812238         0.160841
 H         -0.766003        -1.750516         0.348293
 H         -2.514814         2.116763        -0.287035
 H         -4.781138         1.085284        -0.368746
 O         -5.141973        -1.429742         0.041534
 C         -0.201430         0.924720        -0.058886
 H         -0.262109         2.006554        -0.160627
 C          2.182855         1.383282        -0.054474
 C          2.738887        -0.742202         0.221615
 C          1.057943         0.472293         0.010635
 N          1.428987        -0.838737         0.132156
 N          3.173864         0.541560         0.060741
 O          2.242446         2.624551        -0.168095
 C          4.570625         0.910538        -0.039099
 H          4.689956         1.860968         0.495350
 H          5.181573         0.092238         0.361300
 H          4.787914         1.163003        -1.084206
 C          3.646901        -1.911275        -0.017418
 H          4.311837        -2.151914         0.821116
 H          3.036748        -2.799892        -0.220547
 H          4.278919        -1.650569        -0.875191
 O          1.068034         4.624955         4.170893
 H          1.840936         4.083249         4.330301
 H          0.518674         4.094521         3.593763
 O         -0.896390        -0.262172        -4.276935
 H         -1.267741         0.582402        -4.021935
 H         -0.620187        -0.661275        -3.451914
 O          4.466457         4.359812         0.172724
 H          3.833043         3.677142        -0.048592
 H          4.278127         5.069472        -0.441399
 O         -0.299567        -3.595924        -4.998448
 H          0.342944        -2.912474        -4.807905
 H         -0.779719        -3.708687        -4.178102
 O          3.287427         2.650012         4.364725
 H          2.826810         1.894696         3.999262
 H          3.773532         2.296618         5.109741
 O         -0.027735        -1.524587        -2.246754
 H          0.395517        -1.157953        -1.470436
 H         -0.695994        -2.115045        -1.898874
 O          0.023580        -2.756890         5.217770
 H          0.456479        -2.121528         4.647556
 H         -0.501712        -2.224054         5.814749
 O          2.256990         1.631285        -5.129047
 H          2.285602         2.480443        -5.569897
 H          1.675321         1.769028        -4.381438
 O          0.908681         4.536725         0.667768
 H          1.554561         3.857409         0.473860
 H          0.395437         4.179381         1.392418
 O          1.958513        -3.599378        -2.944511
 H          2.300475        -3.607674        -3.838504
 H          1.587636        -2.723393        -2.838058
 O         -4.082974         2.100163        -3.848597
 H         -4.370506         1.333100        -3.353449
 H         -4.785235         2.254399        -4.480477
 O          1.049629        -1.149385         3.153412
 H          1.034448        -1.389526         2.226950
 H          1.834733        -0.610072         3.248215
 O          3.738532         3.140630        -2.728501
 H          2.932124         2.629878        -2.657285
 H          4.387103         2.519334        -3.059530
 O         -1.954352         4.819175         0.804340
 H         -1.984027         5.744735         1.046600
 H         -2.458583         4.767848        -0.007664
 O         -3.684016         2.217543         2.950020
 H         -3.241158         1.424611         3.252289
 H         -4.517007         1.906378         2.595711
 O          3.704782        -0.210304         3.514309
 H          3.880616        -0.590139         4.375145
 H          4.505508        -0.368976         3.014418
 O          1.108726        -0.519162        -6.239335
 H          1.648322         0.166955        -5.846513
 H          0.260463        -0.435544        -5.803802
 O         -0.776393         3.270320         2.917028
 H         -1.315848         2.778363         3.536060
 H         -1.396161         3.592314         2.262476
 O         -0.887355         0.519358         4.386890
 H         -1.750556         0.227603         4.093647
 H         -0.277585         0.132664         3.758495
 O          0.820596         6.089085        -1.666141
 H          1.630105         5.623641        -1.876589
 H          0.573751         5.761321        -0.801346
 O          1.184024         2.434233        -2.604426
 H          0.278087         2.404595        -2.912047
 H          1.159532         3.013552        -1.842836
 O          1.155666        -5.824955        -1.487755
 H          1.585740        -4.976568        -1.595036
 H          0.261081        -5.608458        -1.224928
 O          0.025205        -3.988769         2.382679
 H         -0.188552        -3.267308         2.974316
 H          0.799653        -4.395652         2.771149
 O          5.115834         1.087258        -3.762720
 H          5.564605         0.249102        -3.873778
 H          4.595575         1.187852        -4.559866
 O         -1.446912        -5.360718         0.283855
 H         -0.904290        -4.937494         0.949192
 H         -1.337001        -6.297717         0.445669
 O         -3.096060         5.027123        -1.652647
 H         -3.874549         4.478644        -1.749392
 H         -2.922162         5.353989        -2.535342
 O         -1.378978        -4.042176        -2.190208
 H         -1.398410        -4.193064        -1.245176
 H         -2.243594        -3.685393        -2.393618
 O         -4.254295        -3.548343        -2.616826
 H         -4.206140        -3.118977        -3.470968
 H         -4.834367        -2.989173        -2.100031
 O         -1.554862         2.503998        -3.277653
 H         -1.904820         3.126048        -2.639832
 H         -2.319971         2.214799        -3.774846
 O         -3.225734        -0.471940         3.379185
 H         -3.559838        -0.656333         2.501343
 H         -3.555992        -1.191468         3.917183
