117

 C         -4.069432        -0.934350        -0.084726
 C         -2.940229        -1.728290         0.113981
 C         -1.643643        -1.124612         0.216417
 C         -1.532706         0.224921         0.072393
 C         -2.671592         1.049729        -0.159529
 C         -3.901576         0.468543        -0.209377
 H         -2.987747        -2.812238         0.160841
 H         -0.766003        -1.750516         0.348293
 H         -2.514814         2.116763        -0.287035
 H         -4.781138         1.085284        -0.368746
 O         -5.141973        -1.429742         0.041534
 C         -0.201430         0.924720        -0.058886
 H         -0.262109         2.006554        -0.160627
 C          2.182855         1.383282        -0.054474
 C          2.738887        -0.742202         0.221615
 C          1.057943         0.472293         0.010635
 N          1.428987        -0.838737         0.132156
 N          3.173864         0.541560         0.060741
 O          2.242446         2.624551        -0.168095
 C          4.570625         0.910538        -0.039099
 H          4.689956         1.860968         0.495350
 H          5.181573         0.092238         0.361300
 H          4.787914         1.163003        -1.084206
 C          3.646901        -1.911275        -0.017418
 H          4.311837        -2.151914         0.821116
 H          3.036748        -2.799892        -0.220547
 H          4.278919        -1.650569        -0.875191
 O          2.003404         4.680159         1.685480
 H          1.145295         5.004876         1.412640
 H          2.327016         4.192755         0.927889
 O          4.346700        -0.121019        -3.793302
 H          5.183154         0.146186        -4.174328
 H          4.524535        -0.975608        -3.400515
 O         -2.293636        -0.853475         5.427986
 H         -3.069837        -0.445642         5.044039
 H         -1.833922        -1.241571         4.683489
 O         -3.018434        -2.770106        -4.444462
 H         -2.202068        -3.161895        -4.134174
 H         -3.056867        -1.919185        -4.007782
 O         -0.430220        -4.940411        -0.504377
 H         -1.252045        -5.399287        -0.678356
 H         -0.494445        -4.132611        -1.013853
 O          2.477206        -2.250125         2.906891
 H          2.125524        -3.047178         2.510332
 H          1.811542        -1.583822         2.736132
 O         -0.806390         5.441792         0.209091
 H         -1.674447         5.428597         0.612247
 H         -0.880847         6.081607        -0.498951
 O         -0.600224         1.360839        -4.083981
 H         -0.063729         1.567809        -4.849206
 H         -0.540921         2.140546        -3.531919
 O         -3.522877         4.608033        -0.625170
 H         -4.435023         4.343287        -0.744051
 H         -3.318251         5.120263        -1.407461
 O         -2.576600        -0.368787        -3.504724
 H         -2.005973         0.303603        -3.876889
 H         -2.466358        -0.279363        -2.558109
 O          0.602893        -2.678943        -1.826591
 H          0.630443        -2.102584        -1.062860
 H          0.588104        -2.083308        -2.575746
 O          0.717904        -3.095848         5.737059
 H         -0.052090        -2.890177         5.206926
 H          1.441053        -3.118607         5.110346
 O          2.207654        -2.136930        -5.302811
 H          3.082492        -2.441648        -5.061903
 H          1.856620        -1.756006        -4.497886
 O          1.405330         1.834153        -6.152959
 H          1.982536         1.979426        -5.403318
 H          1.355056         2.686675        -6.585288
 O          0.185510         2.869763         5.618744
 H          0.820623         3.224389         6.240919
 H          0.706363         2.323868         5.029724
 O          0.112214        -0.630807         2.843344
 H         -0.179240        -1.539073         2.763725
 H          0.127834        -0.304532         1.943604
 O          2.817249         3.812140         3.934975
 H          2.575244         4.267443         3.128523
 H          2.565440         2.901622         3.780766
 O          3.540712         3.945548        -2.123898
 H          3.118041         3.527289        -1.373802
 H          3.135459         4.811209        -2.175198
 O         -2.357055         2.663489         4.826372
 H         -1.487237         2.821791         5.193234
 H         -2.192639         2.160937         4.028475
 O         -1.053204        -2.991594         3.552961
 H         -0.912854        -3.597584         2.825424
 H         -1.701777        -3.427316         4.105890
 O          3.847184        -0.539634         4.593351
 H          4.777843        -0.686969         4.424837
 H          3.399097        -1.009700         3.890154
 O          1.259183        -0.558213        -3.337623
 H          2.089368        -0.085695        -3.276398
 H          0.610929         0.120089        -3.527105
 O          1.709344         1.106545         4.169521
 H          1.037984         0.580752         3.734722
 H          2.397220         0.479523         4.392914
 O          0.086175         3.483861        -2.272411
 H         -0.310998         4.325038        -2.046780
 H          1.028682         3.641440        -2.216900
 O          1.013690        -4.330500         1.939085
 H          1.229055        -5.242120         2.136057
 H          0.530883        -4.371436         1.113583
 O         -0.855256        -4.605636        -4.073472
 H         -0.152079        -4.649659        -3.425525
 H         -0.416581        -4.744609        -4.912807
 O          3.010412         2.193688        -4.166415
 H          3.560762         1.452948        -3.912148
 H          3.041530         2.784581        -3.414014
 O         -4.063668         3.211039         1.875219
 H         -3.588444         3.737712         1.232559
 H         -3.393308         2.654456         2.271532
 O         -2.059550         1.362916         2.626341
 H         -2.317489         1.351071         1.704626
 H         -1.358378         0.714158         2.687189
 O          2.209752        -5.062766        -1.572041
 H          1.422410        -5.136351        -1.032679
 H          2.194856        -4.162169        -1.895979
