117

 C         -4.069432        -0.934350        -0.084726
 C         -2.940229        -1.728290         0.113981
 C         -1.643643        -1.124612         0.216417
 C         -1.532706         0.224921         0.072393
 C         -2.671592         1.049729        -0.159529
 C         -3.901576         0.468543        -0.209377
 H         -2.987747        -2.812238         0.160841
 H         -0.766003        -1.750516         0.348293
 H         -2.514814         2.116763        -0.287035
 H         -4.781138         1.085284        -0.368746
 O         -5.141973        -1.429742         0.041534
 C         -0.201430         0.924720        -0.058886
 H         -0.262109         2.006554        -0.160627
 C          2.182855         1.383282        -0.054474
 C          2.738887        -0.742202         0.221615
 C          1.057943         0.472293         0.010635
 N          1.428987        -0.838737         0.132156
 N          3.173864         0.541560         0.060741
 O          2.242446         2.624551        -0.168095
 C          4.570625         0.910538        -0.039099
 H          4.689956         1.860968         0.495350
 H          5.181573         0.092238         0.361300
 H          4.787914         1.163003        -1.084206
 C          3.646901        -1.911275        -0.017418
 H          4.311837        -2.151914         0.821116
 H          3.036748        -2.799892        -0.220547
 H          4.278919        -1.650569        -0.875191
 O          2.405076        -1.933467         4.164579
 H          2.152416        -1.074146         3.827000
 H          1.709739        -2.520967         3.868633
 O          1.382802         3.051284        -2.873956
 H          1.638076         2.876357        -1.968161
 H          2.063382         2.631337        -3.399964
 O          4.354388         4.125176         0.932207
 H          3.822870         3.396867         0.610828
 H          4.902190         4.369363         0.186207
 O         -5.034807        -2.589329         2.641607
 H         -5.523000        -2.385864         1.843798
 H         -4.462954        -3.315821         2.393766
 O         -4.301158         2.088729         2.855030
 H         -4.967026         1.902291         2.193144
 H         -3.582459         2.488982         2.365641
 O          0.368531        -1.376638        -2.403539
 H          0.521991        -1.030496        -1.524410
 H         -0.419591        -0.924562        -2.704743
 O         -1.038190         1.706687         2.978851
 H         -1.037362         2.604008         2.645615
 H         -1.530160         1.209090         2.325710
 O          1.859647         0.787118         3.382092
 H          2.444967         1.469334         3.711048
 H          1.153379         1.266095         2.948502
 O         -4.553151        -1.376024        -3.907303
 H         -5.286686        -1.554416        -4.495804
 H         -4.403489        -0.434200        -3.989779
 O          1.420940         5.044089         0.119223
 H          1.763887         4.155928         0.218172
 H          0.755166         5.121278         0.802610
 O          0.185165        -4.244364        -2.367952
 H          0.336869        -3.299642        -2.341189
 H          0.289516        -4.529513        -1.460190
 O         -1.329537         3.348031        -4.210387
 H         -0.643975         3.544230        -3.571839
 H         -1.133689         2.459126        -4.506566
 O          4.639760         1.018849         4.151020
 H          5.198230         0.334960         4.520666
 H          4.674262         0.871398         3.205875
 O          4.310930         4.082724        -1.988382
 H          3.983661         4.919978        -1.659544
 H          5.162774         4.292289        -2.371361
 O         -1.495288        -2.479162        -5.034017
 H         -1.635478        -2.756547        -4.128679
 H         -0.929042        -3.154995        -5.406636
 O         -2.526978        -4.307910         2.920008
 H         -1.752145        -3.768763         2.761313
 H         -2.733782        -4.164114         3.843473
 O         -2.365554         3.908316         1.407684
 H         -3.030498         4.552159         1.163662
 H         -1.542157         4.396125         1.390553
 O          1.858379        -0.382406        -5.538629
 H          0.973951        -0.146354        -5.258812
 H          2.432626         0.173331        -5.011724
 O          0.007900         5.615956         2.337193
 H          0.139138         6.563981         2.353285
 H          0.395204         5.306611         3.156052
 O         -0.112435         2.512709         5.517878
 H          0.106654         1.862155         6.184967
 H         -0.455701         1.999486         4.786438
 O         -1.341553        -1.080600         3.580488
 H         -1.101165        -0.169971         3.751369
 H         -2.238166        -1.156909         3.906822
 O          0.300758        -4.429825         4.291361
 H         -0.220185        -5.228374         4.206688
 H          0.509774        -4.183543         3.390312
 O          0.455304        -2.613552         2.134779
 H          0.900518        -2.023753         1.526377
 H         -0.171300        -2.054881         2.594656
 O         -0.622889         0.508033        -5.213218
 H         -1.199837        -0.223871        -4.994863
 H         -0.890780         0.769635        -6.094143
 O          3.344360         2.067473        -4.754389
 H          4.275413         2.106032        -4.535562
 H          3.283120         2.482682        -5.614670
 O          0.123641        -4.855305         0.163052
 H          0.381126        -4.315287         0.910257
 H          0.452037        -5.729163         0.374617
 O         -2.551920        -2.719795        -2.511103
 H         -2.639071        -2.416257        -1.607498
 H         -3.403687        -2.537818        -2.908101
 O         -3.964232         3.618270        -2.364477
 H         -3.404391         3.951754        -3.065618
 H         -4.567908         3.019603        -2.804257
 O         -2.762839        -5.683383        -1.328760
 H         -2.874541        -4.757532        -1.544525
 H         -1.833026        -5.769826        -1.118504
 O         -3.904123        -0.414468         4.156679
 H         -4.573458        -1.049840         3.902660
 H         -4.247732         0.427630         3.858292
