117

 C         -4.069432        -0.934350        -0.084726
 C         -2.940229        -1.728290         0.113981
 C         -1.643643        -1.124612         0.216417
 C         -1.532706         0.224921         0.072393
 C         -2.671592         1.049729        -0.159529
 C         -3.901576         0.468543        -0.209377
 H         -2.987747        -2.812238         0.160841
 H         -0.766003        -1.750516         0.348293
 H         -2.514814         2.116763        -0.287035
 H         -4.781138         1.085284        -0.368746
 O         -5.141973        -1.429742         0.041534
 C         -0.201430         0.924720        -0.058886
 H         -0.262109         2.006554        -0.160627
 C          2.182855         1.383282        -0.054474
 C          2.738887        -0.742202         0.221615
 C          1.057943         0.472293         0.010635
 N          1.428987        -0.838737         0.132156
 N          3.173864         0.541560         0.060741
 O          2.242446         2.624551        -0.168095
 C          4.570625         0.910538        -0.039099
 H          4.689956         1.860968         0.495350
 H          5.181573         0.092238         0.361300
 H          4.787914         1.163003        -1.084206
 C          3.646901        -1.911275        -0.017418
 H          4.311837        -2.151914         0.821116
 H          3.036748        -2.799892        -0.220547
 H          4.278919        -1.650569        -0.875191
 O          0.769515         6.173438         2.323925
 H          0.217590         5.465613         1.991369
 H          1.664699         5.860680         2.193310
 O         -4.877292         0.709300         3.283421
 H         -5.270403         0.394156         2.469551
 H         -5.196360         1.607453         3.371447
 O          3.579059        -1.041791        -3.527140
 H          3.219087        -1.898792        -3.755619
 H          4.525575        -1.180587        -3.494359
 O         -4.811856        -4.021753        -1.640200
 H         -4.939211        -3.291868        -1.034163
 H         -4.856342        -3.622298        -2.508927
 O         -4.328756        -2.071220        -3.586367
 H         -5.259413        -1.918050        -3.749617
 H         -3.945060        -1.195153        -3.547422
 O         -1.035329        -5.250819        -3.415692
 H         -0.239756        -5.597280        -3.819750
 H         -1.391787        -4.647343        -4.067602
 O          1.745664        -4.849977         1.836733
 H          1.543004        -4.469061         0.982294
 H          1.426303        -5.750503         1.779335
 O         -1.223181         4.883034         0.772165
 H         -0.501794         4.801186         0.148361
 H         -1.896659         5.369733         0.296995
 O         -1.705497        -4.542467         3.231003
 H         -1.633919        -3.620794         2.982758
 H         -0.904952        -4.720421         3.724655
 O         -1.675179         2.461808        -3.398844
 H         -1.781304         2.153556        -2.498872
 H         -0.829198         2.909632        -3.400441
 O          1.178792        -0.255786        -2.837643
 H          2.112720        -0.375730        -3.009760
 H          1.021035        -0.737720        -2.025803
 O         -3.653215        -2.303804         2.820215
 H         -3.188757        -1.468381         2.871017
 H         -3.950371        -2.357789         1.911913
 O         -4.296795         3.924435        -1.888765
 H         -4.246777         4.109446        -2.826582
 H         -5.138611         4.290154        -1.617052
 O          5.764037        -0.775905         2.811073
 H          5.584251        -1.693357         2.605663
 H          4.923452        -0.334251         2.690289
 O         -2.345700        -0.075637         3.250303
 H         -1.886567         0.569592         2.712614
 H         -3.198548         0.322032         3.425640
 O          2.913121         4.125563         1.875874
 H          3.068101         3.550866         2.625498
 H          2.793157         3.528683         1.137243
 O          3.245958        -0.249332         3.547346
 H          2.535184        -0.882928         3.449429
 H          3.596364        -0.415815         4.422405
 O         -0.838853         2.041255         5.184282
 H         -1.412858         2.537165         4.600479
 H         -0.003707         2.507872         5.152220
 O          1.468833        -2.133996         2.915966
 H          1.485975        -1.666818         2.080692
 H          1.740426        -3.025457         2.697411
 O         -0.164426         0.332631        -5.291229
 H          0.114394        -0.152467        -4.514589
 H         -0.679089         1.062131        -4.946001
 O          0.041541        -0.854409         5.022661
 H         -0.550221        -0.346597         4.467524
 H          0.532314        -1.402950         4.410715
 O         -2.433413         3.787144         2.997437
 H         -3.309952         3.545729         2.698051
 H         -1.939952         3.943591         2.192295
 O          1.017202         4.725610        -0.690920
 H          0.775541         4.585557        -1.606461
 H          1.721513         4.097602        -0.530348
 O          3.369258         2.352694         3.788725
 H          3.008270         1.487128         3.597113
 H          3.914895         2.218455         4.563639
 O          0.994952        -4.485409        -1.074442
 H          0.063199        -4.388565        -1.271141
 H          1.438819        -4.013792        -1.779278
 O         -3.566570         0.410264        -4.190413
 H         -4.463017         0.704823        -4.029634
 H         -3.017567         1.113974        -3.844550
 O          0.797115         3.417258        -3.376895
 H          1.251357         2.580340        -3.474184
 H          1.302089         4.027718        -3.914083
 O          3.924346         1.457387        -4.432451
 H          3.535083         1.433110        -5.306589
 H          3.704311         0.608567        -4.048624
 O         -4.869362         3.303422         1.904318
 H         -5.825577         3.346814         1.904642
 H         -4.608530         3.773736         1.112482
 O          1.603452        -3.302912        -3.509884
 H          0.890159        -3.046484        -4.094426
 H          2.308358        -3.575340        -4.097356
