117

 C         -4.069432        -0.934350        -0.084726
 C         -2.940229        -1.728290         0.113981
 C         -1.643643        -1.124612         0.216417
 C         -1.532706         0.224921         0.072393
 C         -2.671592         1.049729        -0.159529
 C         -3.901576         0.468543        -0.209377
 H         -2.987747        -2.812238         0.160841
 H         -0.766003        -1.750516         0.348293
 H         -2.514814         2.116763        -0.287035
 H         -4.781138         1.085284        -0.368746
 O         -5.141973        -1.429742         0.041534
 C         -0.201430         0.924720        -0.058886
 H         -0.262109         2.006554        -0.160627
 C          2.182855         1.383282        -0.054474
 C          2.738887        -0.742202         0.221615
 C          1.057943         0.472293         0.010635
 N          1.428987        -0.838737         0.132156
 N          3.173864         0.541560         0.060741
 O          2.242446         2.624551        -0.168095
 C          4.570625         0.910538        -0.039099
 H          4.689956         1.860968         0.495350
 H          5.181573         0.092238         0.361300
 H          4.787914         1.163003        -1.084206
 C          3.646901        -1.911275        -0.017418
 H          4.311837        -2.151914         0.821116
 H          3.036748        -2.799892        -0.220547
 H          4.278919        -1.650569        -0.875191
 O         -3.538718         1.763692         2.710453
 H         -4.085853         2.488000         2.406721
 H         -3.516298         1.154605         1.972387
 O          2.023858         3.148661        -5.233075
 H          2.274991         2.701524        -6.041303
 H          1.596536         2.472058        -4.707875
 O          0.018918         3.520484         2.186398
 H          0.160583         2.715399         2.684395
 H          0.661805         3.480403         1.478357
 O         -0.562363         0.587313         3.254957
 H         -0.044776        -0.209884         3.141775
 H         -0.947072         0.747468         2.393227
 O         -3.811164         4.452796         1.391039
 H         -3.537997         4.320433         0.483242
 H         -3.679005         5.387912         1.547007
 O          3.007310         3.961798        -2.579508
 H          2.851810         3.431140        -3.360823
 H          2.912891         3.348464        -1.850718
 O          3.206599         4.996896         0.788569
 H          2.707427         4.202903         0.597170
 H          3.800485         5.091782         0.043903
 O          3.670001         1.049889         4.697725
 H          2.756999         1.308329         4.571758
 H          3.919078         1.449027         5.531322
 O          0.201358         1.203591        -4.283346
 H          0.034868         0.731932        -5.099465
 H          0.358871         0.515473        -3.636881
 O          0.597261        -1.192033        -2.772949
 H          1.457116        -1.611711        -2.745572
 H          0.386850        -1.017019        -1.855709
 O         -0.399239        -3.539443        -3.434098
 H         -1.169505        -3.503780        -4.001242
 H         -0.216092        -2.624399        -3.221063
 O          3.032272        -2.255712        -3.203607
 H          2.987556        -2.613618        -4.090249
 H          3.902959        -2.500430        -2.890161
 O         -2.463671        -0.914108        -3.333036
 H         -1.641148        -0.737296        -2.876501
 H         -2.777292        -1.734491        -2.952450
 O         -1.963578         2.785102        -3.414532
 H         -2.593581         2.257336        -3.905236
 H         -1.116338         2.571637        -3.805489
 O          2.278177        -4.786560         1.936430
 H          2.924117        -4.245135         2.390141
 H          1.499904        -4.747299         2.492291
 O         -5.900911        -0.985336         2.710905
 H         -5.579062        -1.221977         1.841051
 H         -5.404472        -1.543027         3.309870
 O          0.188718         4.925448        -4.213321
 H          0.771449         4.223033        -4.501883
 H         -0.042361         5.390471        -5.017427
 O         -1.278109         2.750310         4.726158
 H         -1.082621         1.949055         4.240353
 H         -1.533652         3.381789         4.053728
 O         -0.058827        -0.164199        -6.490062
 H         -0.573430         0.561286        -6.843739
 H         -0.558171        -0.947305        -6.721647
 O          0.509540         5.070132        -1.556070
 H          0.381933         5.101916        -2.504194
 H          1.279443         4.514083        -1.436529
 O         -4.962811        -2.100642        -2.706841
 H         -5.787140        -1.618024        -2.645266
 H         -4.778371        -2.375247        -1.808617
 O         -2.313146        -2.985529         3.139179
 H         -1.386197        -2.756608         3.071428
 H         -2.571675        -2.682571         4.009588
 O         -3.659643         1.102658        -4.671019
 H         -3.389539         0.466798        -4.008479
 H         -4.586576         0.915250        -4.819020
 O         -1.147731        -1.510953         5.132528
 H         -1.911063        -1.082944         5.520296
 H         -0.774552        -0.851329         4.547834
 O          0.637983        -1.960735         2.728180
 H          1.467117        -2.299924         3.065405
 H          0.825050        -1.732969         1.817488
 O          2.440789        -5.016154        -3.293004
 H          2.430358        -4.137494        -2.913424
 H          2.106319        -5.581736        -2.596960
 O          1.354799        -5.053898        -0.597099
 H          0.627794        -4.441574        -0.710041
 H          1.744708        -4.810506         0.242521
 O          3.206796        -2.808868         3.561796
 H          4.013625        -2.300361         3.643530
 H          3.281106        -3.485751         4.234507
 O         -0.250766        -5.368947         3.028931
 H         -1.098496        -4.959031         2.857029
 H         -0.370089        -5.825843         3.861540
 O         -2.322317         4.584479        -1.409420
 H         -1.389786         4.582595        -1.193516
 H         -2.401231         3.966161        -2.135839
