117

 C         -4.069432        -0.934350        -0.084726
 C         -2.940229        -1.728290         0.113981
 C         -1.643643        -1.124612         0.216417
 C         -1.532706         0.224921         0.072393
 C         -2.671592         1.049729        -0.159529
 C         -3.901576         0.468543        -0.209377
 H         -2.987747        -2.812238         0.160841
 H         -0.766003        -1.750516         0.348293
 H         -2.514814         2.116763        -0.287035
 H         -4.781138         1.085284        -0.368746
 O         -5.141973        -1.429742         0.041534
 C         -0.201430         0.924720        -0.058886
 H         -0.262109         2.006554        -0.160627
 C          2.182855         1.383282        -0.054474
 C          2.738887        -0.742202         0.221615
 C          1.057943         0.472293         0.010635
 N          1.428987        -0.838737         0.132156
 N          3.173864         0.541560         0.060741
 O          2.242446         2.624551        -0.168095
 C          4.570625         0.910538        -0.039099
 H          4.689956         1.860968         0.495350
 H          5.181573         0.092238         0.361300
 H          4.787914         1.163003        -1.084206
 C          3.646901        -1.911275        -0.017418
 H          4.311837        -2.151914         0.821116
 H          3.036748        -2.799892        -0.220547
 H          4.278919        -1.650569        -0.875191
 O         -0.652104         5.531489         2.345884
 H         -0.756407         4.581532         2.291712
 H          0.122903         5.656499         2.893580
 O          0.663953         2.101296        -3.640007
 H          1.528205         1.702769        -3.537653
 H          0.076034         1.527882        -3.148296
 O         -5.471611        -1.045181         2.851492
 H         -5.508688        -1.025358         1.895216
 H         -4.558063        -1.249202         3.051584
 O         -2.916271        -1.541547         3.689470
 H         -2.002570        -1.316587         3.514042
 H         -2.989062        -2.461955         3.436920
 O         -2.023812         3.961694        -2.103712
 H         -2.471446         4.533097        -2.727694
 H         -2.218454         3.075370        -2.408301
 O         -0.056782        -4.259909        -1.674847
 H          0.089465        -3.702960        -2.439472
 H          0.183236        -5.138562        -1.969110
 O          2.450780        -0.458452         4.210714
 H          2.771470         0.416474         3.991867
 H          2.050658        -0.357784         5.074429
 O         -0.143744        -5.059599         1.166058
 H          0.149068        -4.155484         1.280378
 H         -0.121138        -5.200822         0.219603
 O          4.899448         1.412257         3.200548
 H          5.641195         1.983748         3.001947
 H          4.142837         1.862664         2.825178
 O         -1.312636         2.482228         2.334330
 H         -2.216026         2.300276         2.075460
 H         -1.150725         1.891659         3.070023
 O         -0.765383         2.143664        -6.083662
 H         -0.911490         1.206637        -6.213534
 H         -0.529046         2.223397        -5.159531
 O         -1.061803        -0.758765        -6.498954
 H         -0.222411        -1.049926        -6.142748
 H         -1.340459        -1.474128        -7.070652
 O          0.569415         4.877141        -1.056316
 H          1.137468         4.156121        -0.784876
 H         -0.279763         4.465630        -1.216904
 O          0.433959        -0.709831        -2.497360
 H          0.819227        -1.482818        -2.910024
 H          0.681581        -0.781930        -1.575560
 O         -4.253553         1.544961        -3.513358
 H         -4.077772         0.662219        -3.839088
 H         -4.925116         1.423295        -2.842216
 O         -3.492635        -0.207055        -5.507894
 H         -3.362006        -0.798776        -4.766924
 H         -2.626565        -0.129531        -5.908074
 O          3.764472         3.492425        -2.271253
 H          3.164739         3.215998        -1.578331
 H          3.295512         4.189517        -2.729915
 O         -3.955403         3.458705         2.144655
 H         -4.878747         3.318955         2.354746
 H         -3.738795         4.293206         2.560492
 O         -2.790658        -4.328267        -4.246540
 H         -3.487298        -4.188962        -4.888038
 H         -2.087842        -4.747153        -4.743348
 O          1.050258        -2.597178         2.520300
 H          1.364166        -1.872264         3.060852
 H          1.411790        -2.422117         1.651463
 O          2.244651         2.240655         4.800236
 H          2.200856         2.678208         3.950024
 H          2.650943         2.884574         5.380346
 O          3.013063         3.491877         2.362816
 H          2.702497         3.444094         1.458662
 H          3.366555         4.377310         2.448166
 O          3.356117         0.918389        -3.453913
 H          3.669442         1.772401        -3.156052
 H          4.098672         0.329953        -3.317580
 O         -0.226094         1.033168         4.804670
 H         -0.062400         0.636931         5.660494
 H          0.632430         1.342581         4.515829
 O          1.792682        -1.007922        -4.996211
 H          1.868858        -0.396442        -4.263735
 H          2.668304        -1.029458        -5.382289
 O         -4.158545         4.676303        -0.298155
 H         -3.953750         4.438065         0.606020
 H         -3.375586         4.434367        -0.792799
 O         -0.955056        -3.948337         3.695929
 H         -1.062737        -4.551390         2.960426
 H         -0.266879        -3.346123         3.413115
 O         -3.436100        -1.943437        -3.260468
 H         -2.703692        -1.740114        -2.678686
 H         -3.337645        -2.875979        -3.452570
 O         -6.018343        -1.048421        -2.917706
 H         -6.211000        -1.200179        -1.992456
 H         -5.105882        -1.318994        -3.019873
 O          1.409639        -3.460156        -4.028076
 H          1.840608        -4.247712        -4.360116
 H          1.500900        -2.821126        -4.734861
