117

 C         -4.069432        -0.934350        -0.084726
 C         -2.940229        -1.728290         0.113981
 C         -1.643643        -1.124612         0.216417
 C         -1.532706         0.224921         0.072393
 C         -2.671592         1.049729        -0.159529
 C         -3.901576         0.468543        -0.209377
 H         -2.987747        -2.812238         0.160841
 H         -0.766003        -1.750516         0.348293
 H         -2.514814         2.116763        -0.287035
 H         -4.781138         1.085284        -0.368746
 O         -5.141973        -1.429742         0.041534
 C         -0.201430         0.924720        -0.058886
 H         -0.262109         2.006554        -0.160627
 C          2.182855         1.383282        -0.054474
 C          2.738887        -0.742202         0.221615
 C          1.057943         0.472293         0.010635
 N          1.428987        -0.838737         0.132156
 N          3.173864         0.541560         0.060741
 O          2.242446         2.624551        -0.168095
 C          4.570625         0.910538        -0.039099
 H          4.689956         1.860968         0.495350
 H          5.181573         0.092238         0.361300
 H          4.787914         1.163003        -1.084206
 C          3.646901        -1.911275        -0.017418
 H          4.311837        -2.151914         0.821116
 H          3.036748        -2.799892        -0.220547
 H          4.278919        -1.650569        -0.875191
 O         -2.515232         4.733506         0.699261
 H         -1.583195         4.565921         0.838741
 H         -2.959041         4.042561         1.191053
 O          1.627599         4.641280         3.598188
 H          1.307113         4.187035         4.377407
 H          1.117933         4.270112         2.877975
 O          0.201589        -1.109903         3.007874
 H          0.893283        -1.695241         3.316368
 H          0.586114        -0.660474         2.255287
 O          0.300773         4.294005         1.042547
 H          0.455371         5.124444         0.592321
 H          0.650480         3.630435         0.447895
 O          1.792960         0.952347         6.136572
 H          1.924741         1.004061         7.083246
 H          1.299781         0.142226         6.007305
 O         -0.029668         4.014983        -2.532905
 H         -0.075701         3.560054        -3.373828
 H         -0.713940         4.682370        -2.583863
 O          1.074292         1.323794        -4.017825
 H          1.939796         1.689271        -3.834625
 H          0.580077         2.053807        -4.390744
 O          0.676574        -3.308710        -1.998831
 H          0.770120        -2.816946        -1.182957
 H          0.998689        -4.185192        -1.788467
 O          5.646453         0.686351         3.486170
 H          6.145318         0.450192         2.704124
 H          4.862573         1.119612         3.148455
 O          4.884776        -0.352559        -3.730143
 H          3.953956        -0.575492        -3.719884
 H          5.333730        -1.197603        -3.706141
 O         -3.484885        -2.153346         3.509302
 H         -3.726989        -2.084726         2.585772
 H         -2.940233        -2.939075         3.556383
 O          0.571471        -4.444548         0.591085
 H          0.199874        -3.732950         1.112406
 H          1.183646        -4.881045         1.183491
 O          3.261228         2.058003         3.786360
 H          2.959407         1.584538         4.561579
 H          2.459407         2.273425         3.310011
 O          1.710874        -1.480771        -4.084399
 H          1.145786        -0.727346        -3.913351
 H          1.547382        -2.074121        -3.351297
 O         -1.911940        -2.490340        -3.056406
 H         -1.833745        -1.550037        -3.217475
 H         -1.169905        -2.698627        -2.488750
 O         -4.212870        -4.386648        -2.288276
 H         -3.887908        -5.249931        -2.032589
 H         -3.449979        -3.812894        -2.217329
 O         -1.629584        -4.167709         3.187130
 H         -0.783248        -4.329080         3.604151
 H         -1.903830        -5.025255         2.862114
 O         -3.902590         2.798583         2.128696
 H         -3.635414         2.802544         3.047846
 H         -4.245583         1.916941         1.982771
 O          3.155046         2.591672        -2.947309
 H          2.902469         2.629433        -2.024807
 H          4.108339         2.506766        -2.931348
 O         -0.832312        -4.201226        -4.931837
 H         -1.584223        -3.904883        -4.418962
 H         -0.076314        -3.802510        -4.500881
 O         -3.447510         1.670806        -3.855817
 H         -4.016546         2.334765        -3.466474
 H         -4.020502         1.179755        -4.444697
 O          3.897567         4.270737         1.310228
 H          3.666257         4.149218         2.231077
 H          3.336971         3.654298         0.839096
 O         -2.467580         5.180283        -2.191713
 H         -2.826833         5.001418        -1.322704
 H         -3.103747         4.799229        -2.796957
 O          0.571185         1.557336         3.167547
 H          0.407855         0.621039         3.053951
 H         -0.027812         1.821986         3.865685
 O          2.670718        -3.115790         4.065481
 H          3.407951        -3.386365         3.518204
 H          3.057424        -2.528581         4.715000
 O         -0.401919         3.370002        -5.098257
 H          0.109180         3.442113        -5.904366
 H         -1.131892         3.976596        -5.222415
 O         -5.622657        -1.599298        -2.714514
 H         -5.354578        -1.631425        -1.796183
 H         -5.010367        -2.182328        -3.163300
 O         -1.374469         0.168774        -3.642198
 H         -0.659627         0.804805        -3.668648
 H         -2.161074         0.697898        -3.509871
 O         -1.756507        -0.591140         5.005695
 H         -2.559069        -1.046735         4.751616
 H         -1.181090        -0.677711         4.245674
 O          1.838264         5.380400        -0.992529
 H          1.106111         4.909583        -1.390671
 H          2.616512         5.006753        -1.405991
