111 
   0.0000000000 
  O   -4.8870000   -1.5330000    0.0000000 
  C   -3.9630000   -0.7500000    0.0000000 
  N   -2.6280000   -1.0860000    0.0000000 
  C   -1.8410000   -0.0460000    0.0000000 
  S   -2.5990000    1.5730000    0.0000000 
  C   -4.2160000    0.7730000    0.0000000 
  C   -0.4290000   -0.1000000    0.0000000 
  S    0.4830000   -1.6180000    0.0000000 
  C    1.9690000   -0.6920000    0.0000000 
  C    3.2670000   -1.1300000    0.0000000 
  C    1.6220000    0.7010000    0.0000000 
  N    0.3190000    0.9860000    0.0000000 
  C    2.6720000    1.6620000    0.0000000 
  C    3.9620000    1.2460000    0.0000000 
  C    4.3510000   -0.1720000    0.0000000 
  O    5.5480000   -0.5080000    0.0000000 
  H   -4.7940000    1.0660000    0.8880000 
  H   -4.7930000    1.0340000   -0.8880000 
  H    3.5290000   -2.1820000    0.0000000 
  H    2.4040000    2.7140000    0.0000000 
  H    4.7790000    1.9610000    0.0000000 
  O   -6.2680000    2.8990000   -0.0400000 
  H   -6.9520000    2.8460000   -0.7070000 
  H   -6.7030000    3.2850000    0.7200000 
  O    7.7560000    4.1770000    0.0500000 
  H    8.3510000    4.7550000   -0.4280000 
  H    6.8850000    4.4110000   -0.2700000 
  O   -1.4640000   -3.3150000   -1.7720000 
  H   -2.0130000   -4.0770000   -1.5880000 
  H   -1.7970000   -2.6320000   -1.1900000 
  O    3.8570000    1.3940000    2.9990000 
  H    3.5970000    1.6230000    2.1070000 
  H    4.6630000    0.8880000    2.8910000 
  O   -7.5920000   -0.6820000    0.6690000 
  H   -6.9250000   -0.7740000   -0.0110000 
  H   -8.4180000   -0.6210000    0.1900000 
  O   -5.1660000    0.0900000    3.6250000 
  H   -4.2500000   -0.1890000    3.6150000 
  H   -5.6640000   -0.7230000    3.7010000 
  O    7.0140000    1.1420000   -1.3830000 
  H    6.3900000    0.6260000   -0.8740000 
  H    7.5940000    1.5320000   -0.7290000 
  O    3.9350000    4.9730000    0.6770000 
  H    4.6960000    5.4000000    1.0700000 
  H    3.4490000    4.6170000    1.4210000 
  O    6.9510000   -2.9420000    0.6560000 
  H    6.5510000   -2.1830000    0.2320000 
  H    7.8450000   -2.6630000    0.8540000 
  O   -7.6060000    0.7830000   -1.8530000 
  H   -8.0090000    1.5070000   -2.3330000 
  H   -8.3460000    0.2810000   -1.5110000 
  O    2.7760000   -2.4300000   -2.6170000 
  H    3.6210000   -1.9900000   -2.7150000 
  H    2.4100000   -2.0690000   -1.8100000 
  O   -2.4320000    4.9010000    1.3720000 
  H   -2.9840000    4.8580000    0.5910000 
  H   -1.5410000    4.7790000    1.0420000 
  O   -4.7960000    0.4840000   -5.0530000 
  H   -5.3810000   -0.1370000   -5.4870000 
  H   -5.1780000    0.6080000   -4.1850000 
  O   -7.6200000   -2.9890000    2.3630000 
  H   -6.8440000   -3.1340000    2.9030000 
  H   -7.3120000   -2.4410000    1.6410000 
  O   -4.3140000    4.7250000   -0.7800000 
  H   -4.9460000    4.0960000   -0.4310000 
  H   -4.8140000    5.2430000   -1.4110000 
  O    6.9450000    2.5690000    2.3960000 
  H    6.4170000    3.2340000    2.8360000 
  H    7.4510000    3.0550000    1.7460000 
  O    6.1590000   -1.7720000   -2.1770000 
  H    5.6500000   -1.3610000   -1.4780000 
  H    5.8120000   -1.3910000   -2.9830000 
  O   -2.0990000   -3.3550000    1.6390000 
  H   -2.2700000   -3.9970000    0.9500000 
  H   -2.2280000   -2.5070000    1.2130000 
  O    4.0010000    0.4340000   -2.7280000 
  H    3.9020000    0.4040000   -1.7760000 
  H    4.2790000    1.3310000   -2.9110000 
  O    2.8990000   -4.8030000    1.6430000 
  H    2.3760000   -4.0040000    1.7190000 
  H    2.5170000   -5.4010000    2.2850000 
  O    6.0330000    0.0190000    2.5060000 
  H    5.9940000   -0.3410000    1.6200000 
  H    6.5070000    0.8450000    2.4090000 
  O   -7.6190000    1.1430000    2.9120000 
  H   -6.7620000    0.9350000    3.2850000 
  H   -7.5760000    0.8150000    2.0140000 
  O    2.0200000    3.8040000   -2.4540000 
  H    1.5120000    4.6140000   -2.5000000 
  H    2.2760000    3.6290000   -3.3600000 
  O   -0.5420000    2.5880000   -2.7150000 
  H    0.3900000    2.4490000   -2.5470000 
  H   -0.6970000    3.5000000   -2.4710000 
  O   -7.2240000   -2.8760000   -3.1370000 
  H   -6.4620000   -2.6390000   -2.6090000 
  H   -7.6880000   -3.5270000   -2.6100000 
  O    4.1400000   -1.9370000    2.5570000 
  H    3.8360000   -1.5430000    1.7390000 
  H    4.8740000   -1.3880000    2.8290000 
  O   -0.6310000   -0.2320000    3.1740000 
  H    0.1960000   -0.6080000    3.4760000 
  H   -1.2950000   -0.6310000    3.7350000 
  O    4.9010000    5.1340000   -2.0840000 
  H    4.9270000    4.2090000   -2.3280000 
  H    4.5140000    5.1400000   -1.2080000 
  O    0.0920000    4.1880000    0.9880000 
  H    0.3530000    3.5160000    0.3580000 
  H   -0.1010000    3.7040000    1.7900000 
  O   -3.5900000   -1.8240000   -3.8740000 
  H   -2.8850000   -1.6290000   -3.2560000 
  H   -3.9150000   -0.9650000   -4.1450000 
