111 
   0.0000000000 
  O   -4.8870000   -1.5330000    0.0000000 
  C   -3.9630000   -0.7500000    0.0000000 
  N   -2.6280000   -1.0860000    0.0000000 
  C   -1.8410000   -0.0460000    0.0000000 
  S   -2.5990000    1.5730000    0.0000000 
  C   -4.2160000    0.7730000    0.0000000 
  C   -0.4290000   -0.1000000    0.0000000 
  S    0.4830000   -1.6180000    0.0000000 
  C    1.9690000   -0.6920000    0.0000000 
  C    3.2670000   -1.1300000    0.0000000 
  C    1.6220000    0.7010000    0.0000000 
  N    0.3190000    0.9860000    0.0000000 
  C    2.6720000    1.6620000    0.0000000 
  C    3.9620000    1.2460000    0.0000000 
  C    4.3510000   -0.1720000    0.0000000 
  O    5.5480000   -0.5080000    0.0000000 
  H   -4.7940000    1.0660000    0.8880000 
  H   -4.7930000    1.0340000   -0.8880000 
  H    3.5290000   -2.1820000    0.0000000 
  H    2.4040000    2.7140000    0.0000000 
  H    4.7790000    1.9610000    0.0000000 
  O    2.1230000   -4.7670000   -0.5730000 
  H    2.8910000   -5.2400000   -0.2530000 
  H    1.3770000   -5.2660000   -0.2390000 
  O    1.5490000   -3.7870000    2.7870000 
  H    1.2670000   -3.7850000    1.8730000 
  H    1.8650000   -2.8970000    2.9430000 
  O    6.3580000   -2.7380000    1.2300000 
  H    5.7420000   -3.0630000    1.8860000 
  H    5.9500000   -1.9410000    0.8900000 
  O   -8.2910000    0.0080000    0.0510000 
  H   -7.6790000    0.0760000   -0.6820000 
  H   -9.1360000   -0.1740000   -0.3590000 
  O   -6.9770000    3.1490000   -0.0350000 
  H   -7.5170000    2.3670000    0.0810000 
  H   -7.5460000    3.8740000    0.2240000 
  O    0.6120000    4.9480000   -0.0500000 
  H    1.3320000    5.5660000   -0.1760000 
  H   -0.1330000    5.4960000    0.1980000 
  O   -6.9590000    0.1330000   -2.4460000 
  H   -6.1290000   -0.2140000   -2.7740000 
  H   -7.5860000   -0.0420000   -3.1480000 
  O    3.2210000   -2.6830000   -2.6680000 
  H    3.0030000   -3.4450000   -2.1310000 
  H    3.3380000   -1.9710000   -2.0380000 
  O   -2.7360000   -2.4570000   -2.5090000 
  H   -1.9180000   -2.8680000   -2.7910000 
  H   -2.5390000   -2.1000000   -1.6430000 
  O   -4.2510000   -0.2860000   -3.3870000 
  H   -3.7000000   -1.0490000   -3.2130000 
  H   -3.6390000    0.4490000   -3.4220000 
  O    0.7040000   -0.3590000   -3.7350000 
  H    1.4570000   -0.2940000   -3.1480000 
  H    0.3110000   -1.2070000   -3.5290000 
  O   -2.1700000   -4.0390000    0.6250000 
  H   -2.2560000   -3.1690000    1.0130000 
  H   -2.5050000   -4.6350000    1.2950000 
  O   -5.9180000   -3.3110000    1.8250000 
  H   -5.5100000   -3.0610000    2.6530000 
  H   -5.3590000   -2.9210000    1.1530000 
  O    2.4780000   -1.3270000    2.8770000 
  H    1.6840000   -0.7930000    2.8550000 
  H    3.0200000   -0.9800000    2.1690000 
  O   -7.1280000   -0.7140000    2.4090000 
  H   -7.0680000   -1.6670000    2.3380000 
  H   -7.1490000   -0.4070000    1.5020000 
  O    3.8970000    2.3660000    2.9190000 
  H    3.5590000    2.0210000    2.0930000 
  H    3.1910000    2.9200000    3.2540000 
  O    4.8080000    2.5530000   -3.4260000 
  H    5.4810000    2.5600000   -2.7450000 
  H    4.9000000    3.4000000   -3.8630000 
  O    6.0450000    0.6110000    2.5700000 
  H    5.9120000    0.1080000    1.7670000 
  H    5.3140000    1.2290000    2.5890000 
  O    5.4370000   -4.1550000   -1.6170000 
  H    6.2720000   -4.4130000   -1.2280000 
  H    5.6310000   -3.3420000   -2.0840000 
  O    8.1750000    0.5220000   -0.1480000 
  H    8.7930000   -0.1090000    0.2210000 
  H    7.3190000    0.1020000   -0.0550000 
  O   -5.2930000    3.8300000   -2.0740000 
  H   -4.6560000    4.1530000   -1.4370000 
  H   -5.9580000    3.3890000   -1.5450000 
  O   -0.2920000    3.6030000    2.2120000 
  H    0.2640000    3.4280000    1.4520000 
  H   -0.6960000    4.4500000    2.0240000 
  O   -0.0470000    3.2810000   -2.5560000 
  H    0.7280000    2.7240000   -2.6260000 
  H    0.1020000    3.8020000   -1.7680000 
  O   -1.9050000    1.0020000   -3.1280000 
  H   -1.5190000    1.8010000   -2.7680000 
  H   -1.1610000    0.5140000   -3.4800000 
  O    6.9500000    2.6380000   -1.7480000 
  H    7.0050000    3.4460000   -1.2380000 
  H    7.2850000    1.9600000   -1.1620000 
  O    0.4540000    0.8760000    3.0510000 
  H    0.6940000    0.9630000    3.9730000 
  H    0.2420000    1.7670000    2.7730000 
  O    6.4610000   -1.8650000   -2.3240000 
  H    7.1340000   -1.2410000   -2.5970000 
  H    6.1640000   -1.5400000   -1.4740000 
  O   -4.9580000   -4.1410000   -1.5560000 
  H   -4.6910000   -4.8840000   -1.0150000 
  H   -4.4360000   -3.4080000   -1.2310000 
  O   -2.7970000    0.9730000    3.1980000 
  H   -3.3760000    1.2110000    3.9230000 
  H   -2.2670000    1.7560000    3.0490000 
  O    3.2990000    0.1970000   -2.8790000 
  H    3.7890000    0.9180000   -3.2740000 
  H    3.3410000    0.3660000   -1.9370000 
