111 
   0.0000000000 
  O   -4.8870000   -1.5330000    0.0000000 
  C   -3.9630000   -0.7500000    0.0000000 
  N   -2.6280000   -1.0860000    0.0000000 
  C   -1.8410000   -0.0460000    0.0000000 
  S   -2.5990000    1.5730000    0.0000000 
  C   -4.2160000    0.7730000    0.0000000 
  C   -0.4290000   -0.1000000    0.0000000 
  S    0.4830000   -1.6180000    0.0000000 
  C    1.9690000   -0.6920000    0.0000000 
  C    3.2670000   -1.1300000    0.0000000 
  C    1.6220000    0.7010000    0.0000000 
  N    0.3190000    0.9860000    0.0000000 
  C    2.6720000    1.6620000    0.0000000 
  C    3.9620000    1.2460000    0.0000000 
  C    4.3510000   -0.1720000    0.0000000 
  O    5.5480000   -0.5080000    0.0000000 
  H   -4.7940000    1.0660000    0.8880000 
  H   -4.7930000    1.0340000   -0.8880000 
  H    3.5290000   -2.1820000    0.0000000 
  H    2.4040000    2.7140000    0.0000000 
  H    4.7790000    1.9610000    0.0000000 
  O   -6.0910000   -1.9190000   -3.0510000 
  H   -6.3780000   -1.7950000   -2.1470000 
  H   -5.1430000   -2.0370000   -2.9890000 
  O   -2.6340000    4.6620000    1.2770000 
  H   -2.6680000    5.5620000    1.6020000 
  H   -2.8840000    4.1250000    2.0290000 
  O   -5.0010000    1.4740000   -4.5550000 
  H   -4.3990000    0.8930000   -4.0900000 
  H   -5.3520000    2.0490000   -3.8750000 
  O    6.6300000    0.4420000   -2.1770000 
  H    6.0810000    0.1870000   -1.4350000 
  H    6.1280000    1.1240000   -2.6230000 
  O    2.7810000   -1.3460000   -2.8190000 
  H    3.0140000   -1.1040000   -1.9230000 
  H    2.8030000   -0.5210000   -3.3040000 
  O   -4.1270000    4.5130000   -1.2040000 
  H   -3.6730000    4.5880000   -0.3640000 
  H   -3.4740000    4.7760000   -1.8530000 
  O    2.4810000   -2.5620000    2.4100000 
  H    2.7200000   -1.9160000    1.7450000 
  H    2.0100000   -3.2400000    1.9260000 
  O    4.1530000   -4.4550000    0.6950000 
  H    4.6600000   -5.2010000    1.0150000 
  H    3.2700000   -4.8010000    0.5690000 
  O    3.7500000   -3.8650000   -3.6630000 
  H    4.6900000   -3.7130000   -3.5640000 
  H    3.3430000   -3.2730000   -3.0300000 
  O    0.4990000   -4.4360000   -1.7460000 
  H   -0.1220000   -3.9120000   -1.2400000 
  H    0.0320000   -4.6470000   -2.5550000 
  O   -6.0650000    3.2950000   -2.7280000 
  H   -6.5200000    2.7370000   -2.0970000 
  H   -5.3980000    3.7470000   -2.2120000 
  O   -6.6420000    2.2030000    2.6170000 
  H   -7.4440000    2.3050000    2.1030000 
  H   -6.2100000    3.0550000    2.5590000 
  O   -7.4040000    1.3410000   -1.4880000 
  H   -8.1950000    1.2340000   -2.0160000 
  H   -7.7190000    1.3510000   -0.5840000 
  O   -4.5980000   -0.5620000    3.5260000 
  H   -3.7440000   -0.2950000    3.1860000 
  H   -5.1160000    0.2430000    3.5330000 
  O   -1.9260000    0.6610000    3.2740000 
  H   -1.9390000    0.9330000    4.1910000 
  H   -1.0210000    0.3890000    3.1180000 
  O    4.4300000    2.6670000    3.5420000 
  H    3.8440000    3.4220000    3.5950000 
  H    3.8870000    1.9660000    3.1810000 
  O    5.5610000   -3.0130000   -1.4230000 
  H    5.3960000   -2.1920000   -0.9610000 
  H    5.1680000   -3.6850000   -0.8660000 
  O    3.3190000    1.5690000   -3.0580000 
  H    3.1400000    2.5020000   -3.1790000 
  H    3.3420000    1.4510000   -2.1080000 
  O    0.8860000    0.6390000    3.9360000 
  H    1.2310000    0.0500000    4.6060000 
  H    1.5310000    0.6020000    3.2290000 
  O    3.4160000    0.2630000    2.8710000 
  H    3.6060000    0.1830000    1.9370000 
  H    3.9010000   -0.4550000    3.2770000 
  O    8.3970000   -1.8150000   -1.2390000 
  H    7.4880000   -1.5680000   -1.4100000 
  H    8.3920000   -2.1380000   -0.3380000 
  O   -2.5130000   -3.4250000   -1.3690000 
  H   -2.4430000   -2.5890000   -0.9090000 
  H   -2.3930000   -3.2020000   -2.2920000 
  O    5.5720000   -2.0450000    2.2470000 
  H    4.9000000   -2.7130000    2.1080000 
  H    5.6060000   -1.5630000    1.4210000 
  O    2.1480000    5.1550000    1.0030000 
  H    2.5660000    5.6600000    0.3050000 
  H    1.2830000    4.9370000    0.6570000 
  O    8.4920000    1.8180000   -0.5550000 
  H    8.1890000    1.4960000    0.2940000 
  H    7.9880000    1.3160000   -1.1960000 
  O    2.6980000    4.1460000   -2.5560000 
  H    3.1480000    4.7350000   -1.9510000 
  H    2.3410000    4.7230000   -3.2310000 
  O   -2.1690000   -2.8970000    2.2190000 
  H   -2.3530000   -2.2460000    1.5410000 
  H   -2.0470000   -3.7160000    1.7380000 
  O   -8.0430000   -1.8890000    1.2950000 
  H   -8.4210000   -2.0040000    2.1670000 
  H   -7.4860000   -2.6580000    1.1720000 
  O    0.0750000    3.1280000   -2.0870000 
  H   -0.0890000    3.5110000   -1.2250000 
  H    0.9730000    3.3820000   -2.2960000 
  O    6.8590000    1.2850000    1.7790000 
  H    6.4690000    0.6490000    1.1790000 
  H    6.1190000    1.6330000    2.2750000 
