111 
   0.0000000000 
  O   -4.8870000   -1.5330000    0.0000000 
  C   -3.9630000   -0.7500000    0.0000000 
  N   -2.6280000   -1.0860000    0.0000000 
  C   -1.8410000   -0.0460000    0.0000000 
  S   -2.5990000    1.5730000    0.0000000 
  C   -4.2160000    0.7730000    0.0000000 
  C   -0.4290000   -0.1000000    0.0000000 
  S    0.4830000   -1.6180000    0.0000000 
  C    1.9690000   -0.6920000    0.0000000 
  C    3.2670000   -1.1300000    0.0000000 
  C    1.6220000    0.7010000    0.0000000 
  N    0.3190000    0.9860000    0.0000000 
  C    2.6720000    1.6620000    0.0000000 
  C    3.9620000    1.2460000    0.0000000 
  C    4.3510000   -0.1720000    0.0000000 
  O    5.5480000   -0.5080000    0.0000000 
  H   -4.7940000    1.0660000    0.8880000 
  H   -4.7930000    1.0340000   -0.8880000 
  H    3.5290000   -2.1820000    0.0000000 
  H    2.4040000    2.7140000    0.0000000 
  H    4.7790000    1.9610000    0.0000000 
  O   -2.4990000   -2.0890000    2.7050000 
  H   -2.3810000   -1.8270000    1.7920000 
  H   -1.7370000   -2.6350000    2.8980000 
  O    5.0330000   -0.7450000    2.7960000 
  H    5.8650000   -0.3420000    3.0420000 
  H    5.0620000   -0.7910000    1.8400000 
  O   -6.9620000    2.6690000    1.4650000 
  H   -7.0710000    2.7700000    2.4100000 
  H   -6.3370000    3.3520000    1.2210000 
  O   -5.5590000   -4.7920000   -0.9790000 
  H   -5.7380000   -5.5340000   -1.5570000 
  H   -6.0730000   -4.0730000   -1.3460000 
  O    0.5660000   -1.3800000   -3.7030000 
  H    0.5410000   -2.0820000   -3.0520000 
  H    1.4510000   -1.0220000   -3.6370000 
  O    6.2620000   -3.1970000   -1.2080000 
  H    5.5750000   -3.3680000   -1.8520000 
  H    6.1500000   -2.2750000   -0.9760000 
  O    0.0040000   -3.6600000    2.9000000 
  H   -0.1550000   -4.4900000    3.3510000 
  H    0.7710000   -3.8280000    2.3530000 
  O    7.7020000    2.8420000    1.8710000 
  H    7.9760000    3.0950000    2.7530000 
  H    7.2200000    2.0240000    1.9960000 
  O   -3.2510000   -2.1080000   -3.1150000 
  H   -3.0390000   -2.6660000   -2.3660000 
  H   -3.6020000   -2.7100000   -3.7710000 
  O    5.3970000    3.8580000   -2.0540000 
  H    5.5050000    4.3530000   -1.2420000 
  H    6.0770000    4.1980000   -2.6350000 
  O   -8.1950000   -1.2140000   -0.7680000 
  H   -7.5680000   -0.8640000   -1.4010000 
  H   -8.9670000   -0.6570000   -0.8620000 
  O    6.2560000    5.1120000    0.4200000 
  H    7.1520000    5.2690000    0.1220000 
  H    6.3280000    4.3680000    1.0170000 
  O   -5.3630000    4.1890000   -0.9260000 
  H   -4.4080000    4.1270000   -0.9010000 
  H   -5.5570000    5.0560000   -0.5690000 
  O    7.9970000   -1.6880000    0.6510000 
  H    8.5830000   -1.2950000    0.0050000 
  H    7.1190000   -1.4410000    0.3610000 
  O    6.7760000    1.2310000   -1.6680000 
  H    6.3060000    0.6970000   -1.0270000 
  H    6.1330000    1.8760000   -1.9610000 
  O    4.9130000    2.1860000    3.0280000 
  H    4.3600000    1.7650000    2.3700000 
  H    5.2320000    1.4660000    3.5710000 
  O   -2.7460000   -3.7000000   -0.9840000 
  H   -3.4890000   -4.0350000   -0.4820000 
  H   -2.5050000   -2.8860000   -0.5420000 
  O    1.0000000    5.8160000    1.4720000 
  H    1.8050000    5.4900000    1.8750000 
  H    0.7780000    6.5980000    1.9780000 
  O   -6.2430000    3.1870000   -3.5850000 
  H   -5.3800000    2.7750000   -3.5420000 
  H   -6.2300000    3.8460000   -2.8910000 
  O    2.6370000   -5.0700000   -1.5000000 
  H    2.5360000   -5.8470000   -0.9510000 
  H    1.7550000   -4.8880000   -1.8230000 
  O   -4.0800000    1.7470000    3.4210000 
  H   -4.3730000    1.7800000    4.3310000 
  H   -3.1530000    1.5160000    3.4750000 
  O    2.4380000   -0.2590000    3.3820000 
  H    3.3490000   -0.5490000    3.3200000 
  H    1.9770000   -0.7760000    2.7210000 
  O    3.4020000   -1.2960000   -2.9790000 
  H    4.3480000   -1.4290000   -3.0430000 
  H    3.2170000   -1.3330000   -2.0410000 
  O   -4.1030000    4.2780000    2.6510000 
  H   -4.1430000    4.7610000    3.4760000 
  H   -4.5340000    3.4440000    2.8400000 
  O    0.8330000    5.0060000   -1.3500000 
  H    1.7320000    5.0540000   -1.6750000 
  H    0.8590000    5.4580000   -0.5060000 
  O   -0.7950000    3.3300000    2.7540000 
  H   -1.6270000    3.6660000    3.0880000 
  H   -0.7190000    3.7050000    1.8770000 
  O   -4.8510000   -1.3200000    3.9520000 
  H   -4.0170000   -1.4790000    3.5090000 
  H   -4.9440000   -0.3670000    3.9530000 
  O   -7.1470000   -1.6780000    1.7490000 
  H   -7.6180000   -0.9140000    2.0820000 
  H   -7.2620000   -1.6350000    0.7990000 
  O   -6.2450000   -0.9540000   -2.8680000 
  H   -5.3410000   -1.1890000   -2.6610000 
  H   -6.1870000   -0.4900000   -3.7040000 
  O    3.2150000    1.5850000   -2.9710000 
  H    3.2900000    1.6530000   -2.0190000 
  H    3.6520000    0.7610000   -3.1870000 
