111 
   0.0000000000 
  O   -4.8870000   -1.5330000    0.0000000 
  C   -3.9630000   -0.7500000    0.0000000 
  N   -2.6280000   -1.0860000    0.0000000 
  C   -1.8410000   -0.0460000    0.0000000 
  S   -2.5990000    1.5730000    0.0000000 
  C   -4.2160000    0.7730000    0.0000000 
  C   -0.4290000   -0.1000000    0.0000000 
  S    0.4830000   -1.6180000    0.0000000 
  C    1.9690000   -0.6920000    0.0000000 
  C    3.2670000   -1.1300000    0.0000000 
  C    1.6220000    0.7010000    0.0000000 
  N    0.3190000    0.9860000    0.0000000 
  C    2.6720000    1.6620000    0.0000000 
  C    3.9620000    1.2460000    0.0000000 
  C    4.3510000   -0.1720000    0.0000000 
  O    5.5480000   -0.5080000    0.0000000 
  H   -4.7940000    1.0660000    0.8880000 
  H   -4.7930000    1.0340000   -0.8880000 
  H    3.5290000   -2.1820000    0.0000000 
  H    2.4040000    2.7140000    0.0000000 
  H    4.7790000    1.9610000    0.0000000 
  O   -2.1410000   -3.4940000   -1.6330000 
  H   -1.1980000   -3.3610000   -1.7350000 
  H   -2.4570000   -2.6810000   -1.2400000 
  O   -6.1020000    3.3570000   -0.0890000 
  H   -6.1740000    3.8010000   -0.9340000 
  H   -5.5870000    3.9540000    0.4530000 
  O   -7.8620000   -1.4880000   -1.0640000 
  H   -8.6270000   -1.2630000   -1.5930000 
  H   -7.6020000   -0.6630000   -0.6540000 
  O   -4.6840000   -3.8570000   -2.7750000 
  H   -3.7760000   -3.8230000   -2.4750000 
  H   -4.9300000   -2.9400000   -2.9010000 
  O    6.5470000    0.5860000    2.2970000 
  H    6.3060000    0.1200000    1.4960000 
  H    5.8050000    1.1650000    2.4700000 
  O    2.3210000    4.7470000   -1.5410000 
  H    1.9950000    5.3860000   -2.1750000 
  H    1.6900000    4.7800000   -0.8220000 
  O   -5.3190000   -3.7020000    1.9620000 
  H   -5.2550000   -3.6010000    2.9110000 
  H   -5.1520000   -2.8250000    1.6150000 
  O    2.9380000    0.2420000   -2.8380000 
  H    2.9140000   -0.0050000   -1.9130000 
  H    2.3190000   -0.3530000   -3.2610000 
  O    7.8770000   -0.0140000   -1.3190000 
  H    7.1100000   -0.0100000   -0.7460000 
  H    8.5290000    0.5060000   -0.8500000 
  O    5.2110000    4.7360000   -0.9520000 
  H    5.6560000    4.3830000   -1.7230000 
  H    4.2790000    4.6150000   -1.1370000 
  O   -3.7510000   -5.3430000   -0.0010000 
  H   -3.1850000   -4.8430000   -0.5890000 
  H   -4.3120000   -4.6860000    0.4100000 
  O    3.9430000    2.2040000    2.7720000 
  H    4.1880000    3.1280000    2.7340000 
  H    3.6790000    1.9890000    1.8770000 
  O   -1.5610000   -2.5010000    2.8210000 
  H   -0.8470000   -1.8690000    2.7410000 
  H   -2.3480000   -1.9640000    2.9120000 
  O    5.0050000   -2.0690000   -2.2330000 
  H    4.1090000   -1.8910000   -2.5190000 
  H    5.1580000   -1.4460000   -1.5230000 
  O    2.8510000    2.9030000   -3.5480000 
  H    2.6960000    3.6610000   -2.9830000 
  H    2.8550000    2.1560000   -2.9500000 
  O   -7.7240000   -1.1800000    2.0120000 
  H   -7.4410000   -1.9750000    1.5620000 
  H   -7.8510000   -1.4510000    2.9210000 
  O    5.7060000   -5.2260000   -0.1050000 
  H    6.2600000   -5.8290000    0.3900000 
  H    5.7630000   -4.3990000    0.3730000 
  O    8.3840000   -2.5020000   -0.1530000 
  H    7.5770000   -2.7120000    0.3170000 
  H    8.1740000   -1.7100000   -0.6470000 
  O    3.4140000   -0.5790000    2.6960000 
  H    3.5680000    0.3220000    2.9810000 
  H    3.4460000   -0.5380000    1.7400000 
  O    2.3070000   -3.5030000    2.8230000 
  H    2.8160000   -2.7160000    3.0160000 
  H    1.3960000   -3.2090000    2.8320000 
  O    5.5970000    4.5780000    1.7450000 
  H    6.4260000    4.1660000    1.9860000 
  H    5.6850000    4.7670000    0.8110000 
  O   -2.9520000   -0.0520000   -3.9840000 
  H   -2.7560000    0.7740000   -3.5420000 
  H   -3.6060000    0.1790000   -4.6440000 
  O   -5.9110000   -1.3440000   -2.9370000 
  H   -6.6010000   -1.3510000   -2.2730000 
  H   -5.8850000   -0.4380000   -3.2450000 
  O   -0.2790000    4.6800000   -0.4380000 
  H   -0.3760000    5.5980000   -0.6880000 
  H   -0.5650000    4.6480000    0.4750000 
  O    5.8660000   -2.8220000    1.3020000 
  H    5.3850000   -2.8960000    2.1260000 
  H    5.4670000   -2.0740000    0.8570000 
  O   -7.4460000    1.1570000    0.5860000 
  H   -7.4120000    0.5610000    1.3340000 
  H   -6.7110000    1.7550000    0.7220000 
  O    5.9550000    0.8480000   -3.2680000 
  H    5.1130000    0.7930000   -2.8150000 
  H    6.5780000    0.4430000   -2.6660000 
  O   -4.1880000   -0.0250000    2.9420000 
  H   -4.2880000    0.6330000    3.6300000 
  H   -4.4910000   -0.8400000    3.3430000 
  O    0.6440000   -0.6430000    2.9510000 
  H    1.5980000   -0.5950000    2.8860000 
  H    0.4340000   -0.1670000    3.7550000 
  O   -5.9330000    1.4490000   -3.3080000 
  H   -5.2560000    2.0220000   -2.9490000 
  H   -6.7570000    1.8770000   -3.0760000 
