111 
   0.0000000000 
  O   -4.8870000   -1.5330000    0.0000000 
  C   -3.9630000   -0.7500000    0.0000000 
  N   -2.6280000   -1.0860000    0.0000000 
  C   -1.8410000   -0.0460000    0.0000000 
  S   -2.5990000    1.5730000    0.0000000 
  C   -4.2160000    0.7730000    0.0000000 
  C   -0.4290000   -0.1000000    0.0000000 
  S    0.4830000   -1.6180000    0.0000000 
  C    1.9690000   -0.6920000    0.0000000 
  C    3.2670000   -1.1300000    0.0000000 
  C    1.6220000    0.7010000    0.0000000 
  N    0.3190000    0.9860000    0.0000000 
  C    2.6720000    1.6620000    0.0000000 
  C    3.9620000    1.2460000    0.0000000 
  C    4.3510000   -0.1720000    0.0000000 
  O    5.5480000   -0.5080000    0.0000000 
  H   -4.7940000    1.0660000    0.8880000 
  H   -4.7930000    1.0340000   -0.8880000 
  H    3.5290000   -2.1820000    0.0000000 
  H    2.4040000    2.7140000    0.0000000 
  H    4.7790000    1.9610000    0.0000000 
  O   -7.6690000    1.5720000   -0.6230000 
  H   -7.9200000    2.4380000   -0.9430000 
  H   -7.1610000    1.7470000    0.1700000 
  O   -0.7180000   -0.7560000   -3.2560000 
  H   -0.2130000   -1.0950000   -3.9950000 
  H   -0.4100000    0.1440000   -3.1460000 
  O   -2.3930000   -4.0200000    0.9680000 
  H   -3.0620000   -4.4520000    1.4990000 
  H   -2.6830000   -3.1090000    0.9110000 
  O    2.2240000   -4.3960000    1.2650000 
  H    2.1370000   -3.5700000    1.7420000 
  H    1.3430000   -4.5760000    0.9350000 
  O    3.4210000    2.3210000    2.5870000 
  H    3.3470000    1.5720000    3.1780000 
  H    3.4740000    1.9330000    1.7130000 
  O    3.4820000   -0.3860000    2.9400000 
  H    4.3740000   -0.7060000    3.0740000 
  H    3.3820000   -0.3450000    1.9890000 
  O   -4.1300000    0.3220000    2.9210000 
  H   -3.3530000   -0.1600000    3.2030000 
  H   -4.0580000    1.1710000    3.3570000 
  O    5.4610000    4.3910000   -1.0280000 
  H    6.1270000    5.0360000   -0.7910000 
  H    4.6520000    4.7290000   -0.6420000 
  O   -1.5260000   -2.9810000   -1.9730000 
  H   -1.7710000   -2.4780000   -1.1970000 
  H   -0.9510000   -2.3970000   -2.4670000 
  O    4.8600000   -2.8220000    2.5430000 
  H    5.7350000   -2.4350000    2.5320000 
  H    4.9610000   -3.6550000    2.0820000 
  O    0.9990000    4.4090000    1.5460000 
  H    1.7590000    4.6890000    1.0370000 
  H    0.6570000    5.2160000    1.9310000 
  O   -6.0230000   -1.3490000    3.8150000 
  H   -5.7150000   -1.1730000    4.7040000 
  H   -5.5210000   -0.7490000    3.2630000 
  O   -4.2270000    4.7600000    0.3030000 
  H   -4.8330000    4.0250000    0.3950000 
  H   -4.4240000    5.1280000   -0.5580000 
  O   -0.0920000    4.2160000   -1.2150000 
  H   -0.9080000    4.7150000   -1.1820000 
  H    0.2340000    4.2290000   -0.3150000 
  O   -6.4580000   -3.0750000    1.5640000 
  H   -6.3310000   -2.4750000    2.2990000 
  H   -6.1280000   -2.5960000    0.8040000 
  O    0.6650000    1.7870000   -3.1880000 
  H    1.1840000    2.1280000   -3.9160000 
  H    1.1860000    1.9820000   -2.4090000 
  O    5.0060000   -1.9280000   -2.5450000 
  H    4.7650000   -1.3490000   -3.2680000 
  H    4.8370000   -1.4110000   -1.7570000 
  O    4.4760000    1.4410000   -3.2330000 
  H    4.8100000    2.3050000   -3.4720000 
  H    4.0440000    1.5750000   -2.3890000 
  O    2.4110000   -2.5140000   -3.7560000 
  H    3.0520000   -2.5420000   -3.0460000 
  H    2.6360000   -1.7270000   -4.2520000 
  O    7.4010000    3.0370000    0.2050000 
  H    7.9830000    3.6420000   -0.2560000 
  H    6.5440000    3.1750000   -0.1970000 
  O    7.5840000   -0.6030000   -2.2780000 
  H    7.1120000   -0.2380000   -1.5300000 
  H    7.0300000   -1.3210000   -2.5850000 
  O    0.6140000   -0.1990000    3.4030000 
  H    1.5070000   -0.2440000    3.0600000 
  H    0.3630000    0.7180000    3.2960000 
  O    5.8150000    3.9880000    2.5100000 
  H    6.1620000    3.4430000    1.8040000 
  H    5.1330000    3.4520000    2.9150000 
  O   -6.3570000    2.8130000    1.3690000 
  H   -6.2840000    2.4280000    2.2410000 
  H   -6.6910000    3.6970000    1.5240000 
  O   -6.8930000    1.1590000   -3.4900000 
  H   -6.8700000    1.2190000   -2.5350000 
  H   -7.2460000    0.2870000   -3.6670000 
  O    2.9920000    5.3550000   -0.0660000 
  H    2.5450000    5.5570000   -0.8880000 
  H    3.3510000    6.1940000    0.2240000 
  O   -5.5060000   -2.9510000   -3.3520000 
  H   -5.2420000   -3.2710000   -2.4890000 
  H   -4.9260000   -2.2090000   -3.5210000 
  O   -0.5420000    2.1840000    2.5330000 
  H    0.0570000    2.9090000    2.3540000 
  H   -1.4070000    2.5920000    2.5740000 
  O    6.5170000   -2.9830000    0.2880000 
  H    6.0420000   -2.1540000    0.2320000 
  H    5.8950000   -3.6380000   -0.0280000 
  O    6.8820000    0.1890000    2.0930000 
  H    6.4880000    0.0420000    1.2330000 
  H    7.8020000    0.3770000    1.9060000 
