111 
   0.0000000000 
  O   -4.8870000   -1.5330000    0.0000000 
  C   -3.9630000   -0.7500000    0.0000000 
  N   -2.6280000   -1.0860000    0.0000000 
  C   -1.8410000   -0.0460000    0.0000000 
  S   -2.5990000    1.5730000    0.0000000 
  C   -4.2160000    0.7730000    0.0000000 
  C   -0.4290000   -0.1000000    0.0000000 
  S    0.4830000   -1.6180000    0.0000000 
  C    1.9690000   -0.6920000    0.0000000 
  C    3.2670000   -1.1300000    0.0000000 
  C    1.6220000    0.7010000    0.0000000 
  N    0.3190000    0.9860000    0.0000000 
  C    2.6720000    1.6620000    0.0000000 
  C    3.9620000    1.2460000    0.0000000 
  C    4.3510000   -0.1720000    0.0000000 
  O    5.5480000   -0.5080000    0.0000000 
  H   -4.7940000    1.0660000    0.8880000 
  H   -4.7930000    1.0340000   -0.8880000 
  H    3.5290000   -2.1820000    0.0000000 
  H    2.4040000    2.7140000    0.0000000 
  H    4.7790000    1.9610000    0.0000000 
  O    3.0450000    1.4500000    2.9550000 
  H    2.7870000    1.3330000    2.0400000 
  H    2.3820000    2.0370000    3.3180000 
  O    3.0780000   -1.8600000    2.9770000 
  H    2.1940000   -2.1350000    3.2200000 
  H    2.9670000   -1.4090000    2.1400000 
  O    6.1060000    0.3740000    2.7030000 
  H    5.8340000   -0.1690000    1.9620000 
  H    5.3270000    0.4320000    3.2560000 
  O   -6.6910000    2.8600000   -0.7090000 
  H   -6.4410000    2.6540000   -1.6100000 
  H   -7.2990000    3.5950000   -0.7900000 
  O   -7.7780000    0.1200000   -0.5450000 
  H   -8.7220000    0.2500000   -0.4550000 
  H   -7.4210000    1.0050000   -0.6230000 
  O    4.3930000   -3.6970000   -3.0540000 
  H    5.0220000   -4.3160000   -3.4250000 
  H    4.8770000   -3.2520000   -2.3590000 
  O    2.3850000    5.1070000    1.1510000 
  H    2.2140000    5.6000000    1.9540000 
  H    3.1800000    4.6100000    1.3390000 
  O   -3.3040000   -3.1870000   -2.1390000 
  H   -4.2410000   -3.2410000   -1.9520000 
  H   -2.9870000   -2.4790000   -1.5780000 
  O    5.8440000   -2.9600000    1.8840000 
  H    5.4550000   -2.2050000    1.4430000 
  H    5.2700000   -3.6920000    1.6580000 
  O    2.8940000   -4.9820000    3.0580000 
  H    3.0460000   -4.3020000    2.4020000 
  H    1.9500000   -5.1400000    3.0260000 
  O    4.4390000   -4.6980000    0.3660000 
  H    4.8930000   -5.0190000   -0.4130000 
  H    3.5510000   -5.0460000    0.2860000 
  O    6.9160000    1.4770000   -1.2610000 
  H    6.2660000    0.8370000   -0.9720000 
  H    7.7060000    1.2570000   -0.7670000 
  O   -0.4860000   -4.5630000   -2.1610000 
  H    0.0490000   -3.7830000   -2.3090000 
  H   -1.3880000   -4.2560000   -2.2510000 
  O   -5.3530000    3.3460000    1.6470000 
  H   -5.1050000    4.1660000    1.2200000 
  H   -5.8600000    2.8760000    0.9860000 
  O   -4.2780000    0.3040000    3.0950000 
  H   -3.7520000    1.1020000    3.1590000 
  H   -5.1690000    0.5870000    3.3040000 
  O    4.0040000    4.9170000   -1.4090000 
  H    3.2670000    4.8080000   -0.8080000 
  H    4.7690000    4.6450000   -0.9020000 
  O   -1.7830000   -3.1620000    2.0420000 
  H   -2.2210000   -2.4570000    1.5640000 
  H   -2.4370000   -3.4680000    2.6700000 
  O    8.0510000    2.1320000    1.3850000 
  H    7.3870000    1.5410000    1.7400000 
  H    7.9090000    2.9590000    1.8470000 
  O   -7.7440000   -1.8710000    2.3950000 
  H   -8.5680000   -2.1450000    1.9920000 
  H   -7.2060000   -1.5700000    1.6630000 
  O   -6.1150000    1.4860000   -3.1100000 
  H   -5.7050000    2.2050000   -3.5910000 
  H   -5.8980000    0.7040000   -3.6170000 
  O    4.4610000    3.7700000    2.4560000 
  H    4.3060000    2.8460000    2.6540000 
  H    5.1450000    3.7610000    1.7870000 
  O    2.8450000   -1.1880000   -2.8210000 
  H    2.8250000   -1.1990000   -1.8640000 
  H    3.7200000   -1.5050000   -3.0460000 
  O   -6.2830000    1.8120000    3.9560000 
  H   -6.2040000    2.3870000    3.1950000 
  H   -6.0110000    2.3550000    4.6960000 
  O    5.7970000    3.0300000   -3.2860000 
  H    6.2860000    2.5900000   -2.5910000 
  H    4.9280000    2.6310000   -3.2570000 
  O   -0.5390000    4.3590000    0.9210000 
  H    0.4080000    4.2200000    0.9040000 
  H   -0.7670000    4.3440000    1.8500000 
  O    6.3790000    4.2100000    0.1390000 
  H    6.7250000    3.3810000   -0.1920000 
  H    7.1330000    4.7980000    0.1480000 
  O    3.6430000    1.3840000   -2.8300000 
  H    3.4580000    0.4510000   -2.7230000 
  H    3.5560000    1.7490000   -1.9500000 
  O    7.8110000   -1.9900000   -0.7710000 
  H    7.1970000   -1.4680000   -0.2540000 
  H    8.6240000   -1.9740000   -0.2660000 
  O    0.1540000    3.5970000   -1.5950000 
  H    0.3090000    4.4570000   -1.9860000 
  H   -0.5810000    3.7330000   -0.9980000 
  O    5.7250000   -0.9680000   -2.5730000 
  H    5.5490000   -0.9540000   -1.6320000 
  H    6.6260000   -0.6550000   -2.6530000 
