111 
   0.0000000000 
  O   -4.8870000   -1.5330000    0.0000000 
  C   -3.9630000   -0.7500000    0.0000000 
  N   -2.6280000   -1.0860000    0.0000000 
  C   -1.8410000   -0.0460000    0.0000000 
  S   -2.5990000    1.5730000    0.0000000 
  C   -4.2160000    0.7730000    0.0000000 
  C   -0.4290000   -0.1000000    0.0000000 
  S    0.4830000   -1.6180000    0.0000000 
  C    1.9690000   -0.6920000    0.0000000 
  C    3.2670000   -1.1300000    0.0000000 
  C    1.6220000    0.7010000    0.0000000 
  N    0.3190000    0.9860000    0.0000000 
  C    2.6720000    1.6620000    0.0000000 
  C    3.9620000    1.2460000    0.0000000 
  C    4.3510000   -0.1720000    0.0000000 
  O    5.5480000   -0.5080000    0.0000000 
  H   -4.7940000    1.0660000    0.8880000 
  H   -4.7930000    1.0340000   -0.8880000 
  H    3.5290000   -2.1820000    0.0000000 
  H    2.4040000    2.7140000    0.0000000 
  H    4.7790000    1.9610000    0.0000000 
  O   -3.0070000   -1.0820000   -3.3100000 
  H   -2.5370000   -0.2550000   -3.2030000 
  H   -2.3480000   -1.6920000   -3.6400000 
  O    2.6050000   -5.2170000    0.1720000 
  H    1.6680000   -5.0300000    0.1250000 
  H    2.8010000   -5.2270000    1.1090000 
  O    4.3970000    4.3770000    1.4540000 
  H    4.3300000    3.5240000    1.0250000 
  H    4.2170000    4.1960000    2.3760000 
  O    0.0890000    4.2460000    1.6660000 
  H   -0.8680000    4.2440000    1.7060000 
  H    0.3630000    4.6340000    2.4980000 
  O   -0.8260000    1.0720000   -2.9830000 
  H   -0.4580000    0.8760000   -3.8450000 
  H   -0.8110000    2.0280000   -2.9280000 
  O    0.0710000    1.6210000    3.4750000 
  H   -0.3860000    2.2480000    2.9130000 
  H   -0.5230000    0.8730000    3.5310000 
  O   -5.2850000   -3.8530000   -1.5110000 
  H   -5.4530000   -2.9110000   -1.5260000 
  H   -5.9400000   -4.2040000   -0.9070000 
  O    3.1830000    2.5420000   -2.8900000 
  H    2.9700000    1.6280000   -2.7020000 
  H    2.3340000    2.9800000   -2.9460000 
  O   -6.2330000    1.1670000   -3.0400000 
  H   -6.9120000    1.7590000   -3.3630000 
  H   -5.4100000    1.6160000   -3.2330000 
  O   -6.8560000    3.6320000   -0.2400000 
  H   -6.3810000    3.3450000    0.5400000 
  H   -7.2020000    2.8240000   -0.6200000 
  O   -6.0430000    2.7700000    2.2730000 
  H   -6.5160000    3.4650000    2.7310000 
  H   -5.5220000    2.3460000    2.9540000 
  O   -1.7160000   -0.8770000    3.2300000 
  H   -2.5570000   -1.0580000    3.6500000 
  H   -1.6850000   -1.4770000    2.4860000 
  O    5.5490000   -4.5710000    1.2100000 
  H    5.8140000   -3.6550000    1.1280000 
  H    5.1730000   -4.6350000    2.0880000 
  O   -2.4290000    4.0270000    2.7340000 
  H   -2.5290000    4.2370000    3.6630000 
  H   -2.9640000    3.2440000    2.6070000 
  O   -6.0040000   -2.8860000    3.1100000 
  H   -6.6730000   -3.4340000    3.5210000 
  H   -6.4890000   -2.1410000    2.7550000 
  O    7.9700000   -1.8670000   -0.4840000 
  H    7.3210000   -1.2070000   -0.2410000 
  H    8.3130000   -1.5660000   -1.3260000 
  O    0.3880000    3.5570000   -3.5320000 
  H    0.4640000    3.7310000   -2.5930000 
  H   -0.0370000    4.3370000   -3.8870000 
  O    5.6070000   -2.4820000   -1.7320000 
  H    5.3310000   -1.6390000   -1.3720000 
  H    6.4730000   -2.6320000   -1.3520000 
  O    0.8100000    4.4430000   -0.9400000 
  H    1.4790000    5.1170000   -0.8200000 
  H    0.3990000    4.3570000   -0.0800000 
  O    5.6660000    1.6000000    2.7990000 
  H    5.4160000    1.3890000    3.6980000 
  H    5.0090000    1.1630000    2.2580000 
  O    2.7250000   -0.3430000   -2.9240000 
  H    2.2960000   -1.1420000   -3.2290000 
  H    2.8270000   -0.4710000   -1.9800000 
  O    5.0100000    4.0750000   -1.6580000 
  H    4.3440000    3.4420000   -1.9260000 
  H    4.6470000    4.4870000   -0.8740000 
  O   -3.7690000    1.3420000    3.5720000 
  H   -4.0890000    1.5890000    4.4400000 
  H   -3.9880000    0.4140000    3.4910000 
  O    5.8800000    0.8110000   -2.2630000 
  H    5.1270000    1.3880000   -2.3870000 
  H    5.7120000    0.3730000   -1.4280000 
  O    3.3210000   -3.7580000   -2.2570000 
  H    3.2880000   -4.2150000   -1.4160000 
  H    4.0540000   -3.1480000   -2.1700000 
  O    2.7470000   -1.6040000    2.6760000 
  H    3.6050000   -2.0270000    2.7110000 
  H    2.6730000   -1.2830000    1.7770000 
  O   -8.1360000    1.3290000   -0.9330000 
  H   -8.9950000    1.4310000   -1.3440000 
  H   -7.6230000    0.8330000   -1.5710000 
  O    5.4580000   -1.8740000    2.2920000 
  H    5.1960000   -1.4360000    1.4820000 
  H    6.4140000   -1.9000000    2.2520000 
  O   -2.4520000   -3.8760000   -0.0240000 
  H   -2.6140000   -2.9480000   -0.1900000 
  H   -3.1800000   -4.1510000    0.5340000 
  O    7.8210000    1.0980000    0.4990000 
  H    7.9730000    1.3580000    1.4080000 
  H    6.9280000    0.7540000    0.4940000 
