111 
   0.0000000000 
  O   -4.8870000   -1.5330000    0.0000000 
  C   -3.9630000   -0.7500000    0.0000000 
  N   -2.6280000   -1.0860000    0.0000000 
  C   -1.8410000   -0.0460000    0.0000000 
  S   -2.5990000    1.5730000    0.0000000 
  C   -4.2160000    0.7730000    0.0000000 
  C   -0.4290000   -0.1000000    0.0000000 
  S    0.4830000   -1.6180000    0.0000000 
  C    1.9690000   -0.6920000    0.0000000 
  C    3.2670000   -1.1300000    0.0000000 
  C    1.6220000    0.7010000    0.0000000 
  N    0.3190000    0.9860000    0.0000000 
  C    2.6720000    1.6620000    0.0000000 
  C    3.9620000    1.2460000    0.0000000 
  C    4.3510000   -0.1720000    0.0000000 
  O    5.5480000   -0.5080000    0.0000000 
  H   -4.7940000    1.0660000    0.8880000 
  H   -4.7930000    1.0340000   -0.8880000 
  H    3.5290000   -2.1820000    0.0000000 
  H    2.4040000    2.7140000    0.0000000 
  H    4.7790000    1.9610000    0.0000000 
  O    2.9630000   -1.5230000    2.8000000 
  H    2.9970000   -1.1690000    1.9110000 
  H    3.7920000   -1.2560000    3.1960000 
  O   -5.2880000   -0.4350000    3.5400000 
  H   -6.1220000   -0.0070000    3.7320000 
  H   -4.6890000    0.2840000    3.3420000 
  O   -1.8590000    4.5500000   -1.4230000 
  H   -1.5230000    5.4030000   -1.7000000 
  H   -1.1890000    4.2100000   -0.8290000 
  O   -1.8420000   -2.9090000   -2.3110000 
  H   -2.3170000   -3.6800000   -2.0000000 
  H   -2.1220000   -2.2030000   -1.7280000 
  O    7.4870000    0.3360000    1.6770000 
  H    7.4620000    1.2930000    1.6980000 
  H    6.9170000    0.0970000    0.9460000 
  O    3.6150000    0.8310000   -2.8400000 
  H    3.7240000    1.0960000   -1.9270000 
  H    3.2120000   -0.0360000   -2.7920000 
  O   -6.1140000   -2.7940000   -2.6870000 
  H   -5.5630000   -2.0620000   -2.9620000 
  H   -5.5580000   -3.5660000   -2.7920000 
  O   -4.9360000   -0.6990000   -3.7270000 
  H   -5.4780000    0.0880000   -3.7770000 
  H   -4.6730000   -0.8680000   -4.6310000 
  O    2.7020000   -2.3130000   -2.6350000 
  H    3.3330000   -2.9710000   -2.3440000 
  H    2.6850000   -1.6680000   -1.9280000 
  O    2.4510000    2.0370000    3.0940000 
  H    2.9020000    1.2650000    2.7510000 
  H    2.8710000    2.7760000    2.6540000 
  O    4.5090000   -4.0630000   -1.8680000 
  H    4.1180000   -4.9190000   -1.6890000 
  H    5.1680000   -3.9520000   -1.1840000 
  O   -5.5120000   -4.6350000   -0.2210000 
  H   -5.3970000   -3.7520000   -0.5700000 
  H   -5.2860000   -4.5590000    0.7060000 
  O   -2.0880000   -3.1310000    1.8850000 
  H   -2.7000000   -3.0940000    2.6190000 
  H   -2.3160000   -2.3760000    1.3430000 
  O   -3.6030000    1.9600000   -3.9310000 
  H   -3.0160000    1.3300000   -3.5140000 
  H   -3.4940000    1.8040000   -4.8690000 
  O   -8.0500000   -2.2330000   -0.7220000 
  H   -7.3130000   -2.2050000   -1.3330000 
  H   -8.6080000   -2.9370000   -1.0520000 
  O    0.0500000   -4.7210000    1.1240000 
  H    0.8110000   -4.1860000    1.3520000 
  H   -0.7020000   -4.2050000    1.4160000 
  O    5.7550000   -0.9740000    3.5570000 
  H    6.1270000   -0.5360000    2.7920000 
  H    6.4320000   -0.9000000    4.2290000 
  O    2.8720000   -4.1720000    1.7750000 
  H    2.9420000   -3.2950000    2.1530000 
  H    3.4020000   -4.7240000    2.3510000 
  O    5.9820000   -3.1190000    0.3670000 
  H    5.7570000   -3.5170000    1.2070000 
  H    5.9440000   -2.1770000    0.5290000 
  O    1.7750000    5.0970000    1.9130000 
  H    1.3600000    5.9020000    2.2260000 
  H    1.5890000    5.0800000    0.9740000 
  O   -3.7630000    1.9760000    3.3230000 
  H   -3.9680000    2.9100000    3.3570000 
  H   -2.9660000    1.9250000    2.7950000 
  O    4.8200000    5.2810000    1.6560000 
  H    3.9640000    4.8660000    1.5470000 
  H    4.9220000    5.3750000    2.6030000 
  O   -4.3340000    3.9230000   -2.0010000 
  H   -3.4740000    4.2740000   -1.7720000 
  H   -4.1530000    3.2600000   -2.6670000 
  O    2.7030000   -5.9120000   -0.3080000 
  H    2.6580000   -5.3640000    0.4760000 
  H    3.2670000   -6.6430000   -0.0560000 
  O    1.8450000    5.0290000   -0.7200000 
  H    2.2470000    5.8430000   -1.0250000 
  H    1.5520000    4.5920000   -1.5200000 
  O   -0.6440000    1.5240000    3.3420000 
  H   -0.6180000    0.9250000    4.0880000 
  H    0.2460000    1.5090000    2.9900000 
  O    7.0840000    0.0760000   -2.3390000 
  H    6.7400000   -0.5290000   -2.9970000 
  H    6.6270000   -0.1620000   -1.5330000 
  O    0.1140000   -1.4370000    3.4100000 
  H    0.9610000   -1.4280000    2.9650000 
  H   -0.2160000   -2.3260000    3.2810000 
  O   -7.9610000    0.6620000   -0.0410000 
  H   -7.8720000    0.7080000    0.9110000 
  H   -8.0700000   -0.2700000   -0.2270000 
  O   -7.4070000    0.7670000   -2.7490000 
  H   -7.7740000    0.0040000   -3.1950000 
  H   -7.6600000    0.6550000   -1.8330000 
