111 
   0.0000000000 
  O   -4.8870000   -1.5330000    0.0000000 
  C   -3.9630000   -0.7500000    0.0000000 
  N   -2.6280000   -1.0860000    0.0000000 
  C   -1.8410000   -0.0460000    0.0000000 
  S   -2.5990000    1.5730000    0.0000000 
  C   -4.2160000    0.7730000    0.0000000 
  C   -0.4290000   -0.1000000    0.0000000 
  S    0.4830000   -1.6180000    0.0000000 
  C    1.9690000   -0.6920000    0.0000000 
  C    3.2670000   -1.1300000    0.0000000 
  C    1.6220000    0.7010000    0.0000000 
  N    0.3190000    0.9860000    0.0000000 
  C    2.6720000    1.6620000    0.0000000 
  C    3.9620000    1.2460000    0.0000000 
  C    4.3510000   -0.1720000    0.0000000 
  O    5.5480000   -0.5080000    0.0000000 
  H   -4.7940000    1.0660000    0.8880000 
  H   -4.7930000    1.0340000   -0.8880000 
  H    3.5290000   -2.1820000    0.0000000 
  H    2.4040000    2.7140000    0.0000000 
  H    4.7790000    1.9610000    0.0000000 
  O    0.8820000   -3.6030000    2.4540000 
  H    0.9210000   -3.0090000    3.2030000 
  H    1.2490000   -3.0980000    1.7280000 
  O    5.8480000    0.9120000   -2.4220000 
  H    5.2280000    1.6260000   -2.5710000 
  H    5.5860000    0.5390000   -1.5800000 
  O   -0.7280000   -0.7510000    3.2060000 
  H   -1.6260000   -1.0500000    3.0630000 
  H   -0.8200000    0.0410000    3.7360000 
  O    1.0310000   -4.8860000   -2.2550000 
  H    0.8160000   -4.6970000   -1.3420000 
  H    1.4050000   -4.0700000   -2.5880000 
  O    5.8810000   -2.4570000    1.8720000 
  H    5.7620000   -1.7750000    1.2110000 
  H    6.3890000   -3.1360000    1.4270000 
  O    6.3600000    4.6030000   -0.4410000 
  H    6.9300000    3.9700000   -0.0070000 
  H    6.4320000    4.3930000   -1.3720000 
  O    5.9590000   -2.9540000   -1.0850000 
  H    5.4950000   -3.0860000   -1.9120000 
  H    5.8590000   -2.0200000   -0.8990000 
  O    3.7410000    2.7720000   -2.7870000 
  H    3.4760000    1.9090000   -2.4690000 
  H    2.9220000    3.2610000   -2.8640000 
  O   -5.1600000   -2.8500000   -2.3350000 
  H   -5.4370000   -2.5590000   -1.4660000 
  H   -4.6350000   -2.1250000   -2.6750000 
  O   -4.3460000    3.4560000    2.2690000 
  H   -3.8260000    4.2230000    2.0310000 
  H   -4.8640000    3.2640000    1.4880000 
  O   -7.8890000    0.3650000   -0.4190000 
  H   -7.8760000   -0.4900000   -0.8490000 
  H   -8.7980000    0.6550000   -0.4900000 
  O   -3.5390000   -0.9020000    3.2490000 
  H   -3.7940000   -1.6750000    3.7520000 
  H   -3.6550000   -0.1710000    3.8570000 
  O    4.9200000    4.2580000    2.5080000 
  H    4.1450000    4.0980000    3.0460000 
  H    5.3410000    3.4020000    2.4330000 
  O    0.7570000    3.8710000   -2.7860000 
  H    0.0590000    3.6350000   -3.3970000 
  H    0.3390000    3.8530000   -1.9250000 
  O    3.0220000   -0.4210000   -2.8930000 
  H    2.9920000   -0.5930000   -1.9520000 
  H    3.7980000   -0.8910000   -3.1980000 
  O    6.5850000    1.4240000    2.2840000 
  H    6.4610000    1.0770000    3.1670000 
  H    5.9770000    0.9210000    1.7410000 
  O   -7.6520000    0.5720000    2.2600000 
  H   -7.5240000    0.4150000    1.3250000 
  H   -7.2660000   -0.1930000    2.6870000 
  O    3.2110000    1.3920000    2.7310000 
  H    3.0620000    0.5540000    3.1690000 
  H    3.5110000    1.1550000    1.8540000 
  O    8.2150000    2.8400000    0.7350000 
  H    8.7440000    2.3870000    0.0790000 
  H    7.8730000    2.1410000    1.2920000 
  O   -7.4090000   -3.7590000    0.8730000 
  H   -7.9300000   -3.0870000    0.4330000 
  H   -8.0490000   -4.4160000    1.1480000 
  O   -0.2600000    0.3290000   -3.2470000 
  H    0.6650000    0.1810000   -3.0480000 
  H   -0.4730000   -0.3320000   -3.9050000 
  O   -1.7650000   -3.2040000   -2.2850000 
  H   -1.4180000   -2.4260000   -1.8470000 
  H   -2.4430000   -3.5300000   -1.6940000 
  O    8.8970000   -0.6600000    0.1300000 
  H    8.2020000   -0.4020000   -0.4750000 
  H    9.6960000   -0.6330000   -0.3980000 
  O   -6.3450000   -1.8890000    2.5580000 
  H   -6.4990000   -2.5070000    1.8430000 
  H   -5.5030000   -2.1530000    2.9260000 
  O   -3.8200000   -0.7610000   -3.7210000 
  H   -2.9130000   -0.9890000   -3.9250000 
  H   -3.8780000    0.1770000   -3.8990000 
  O    3.1810000   -1.2840000    2.7250000 
  H    3.0480000   -1.1220000    1.7910000 
  H    3.8810000   -1.9370000    2.7570000 
  O   -6.3880000    3.5030000    0.3490000 
  H   -7.2630000    3.8820000    0.4330000 
  H   -6.0210000    3.9170000   -0.4310000 
  O   -0.3320000    4.7650000    0.1220000 
  H   -0.0170000    4.1070000    0.7410000 
  H    0.0710000    5.5820000    0.4140000 
  O    1.0830000    3.5850000    2.5520000 
  H    1.8480000    3.0140000    2.4750000 
  H    1.3230000    4.2190000    3.2280000 
  O   -2.5000000   -3.8690000    1.4240000 
  H   -2.4650000   -2.9700000    1.0970000 
  H   -2.6600000   -3.7760000    2.3640000 
