111 
   0.0000000000 
  O   -4.8870000   -1.5330000    0.0000000 
  C   -3.9630000   -0.7500000    0.0000000 
  N   -2.6280000   -1.0860000    0.0000000 
  C   -1.8410000   -0.0460000    0.0000000 
  S   -2.5990000    1.5730000    0.0000000 
  C   -4.2160000    0.7730000    0.0000000 
  C   -0.4290000   -0.1000000    0.0000000 
  S    0.4830000   -1.6180000    0.0000000 
  C    1.9690000   -0.6920000    0.0000000 
  C    3.2670000   -1.1300000    0.0000000 
  C    1.6220000    0.7010000    0.0000000 
  N    0.3190000    0.9860000    0.0000000 
  C    2.6720000    1.6620000    0.0000000 
  C    3.9620000    1.2460000    0.0000000 
  C    4.3510000   -0.1720000    0.0000000 
  O    5.5480000   -0.5080000    0.0000000 
  H   -4.7940000    1.0660000    0.8880000 
  H   -4.7930000    1.0340000   -0.8880000 
  H    3.5290000   -2.1820000    0.0000000 
  H    2.4040000    2.7140000    0.0000000 
  H    4.7790000    1.9610000    0.0000000 
  O    6.3210000   -0.1250000    2.6700000 
  H    6.1400000   -0.3150000    1.7500000 
  H    5.6210000   -0.5690000    3.1490000 
  O   -6.3970000   -4.3630000   -0.9260000 
  H   -6.0540000   -4.3350000   -0.0330000 
  H   -5.7050000   -3.9760000   -1.4620000 
  O    6.9110000    0.9510000   -1.5510000 
  H    6.2820000    0.5370000   -0.9610000 
  H    6.4280000    1.0750000   -2.3680000 
  O   -7.6300000    0.4170000    2.1780000 
  H   -7.4280000   -0.5010000    2.0020000 
  H   -7.3610000    0.8790000    1.3840000 
  O    3.6290000   -1.3290000    3.4890000 
  H    3.2680000   -1.0900000    2.6360000 
  H    3.6760000   -0.5030000    3.9700000 
  O   -1.9640000   -3.1030000   -1.8420000 
  H   -2.1610000   -2.3540000   -1.2800000 
  H   -1.6270000   -3.7700000   -1.2440000 
  O   -7.5250000    1.7270000   -0.1220000 
  H   -7.5710000    1.5080000   -1.0530000 
  H   -7.6710000    2.6730000   -0.0910000 
  O    4.8330000    4.1710000    3.0650000 
  H    4.0050000    4.3500000    2.6210000 
  H    5.2700000    5.0210000    3.1100000 
  O    4.5370000    4.4450000   -1.0790000 
  H    3.7800000    4.8560000   -0.6620000 
  H    4.1640000    3.7580000   -1.6310000 
  O    3.2540000   -0.5390000   -2.8280000 
  H    4.1800000   -0.7140000   -2.9920000 
  H    3.1900000   -0.4620000   -1.8760000 
  O    8.7880000   -0.7580000   -0.1170000 
  H    8.3240000   -0.9960000    0.6850000 
  H    8.1770000   -0.1950000   -0.5910000 
  O   -1.8480000    2.4550000    3.4300000 
  H   -2.7850000    2.2590000    3.4360000 
  H   -1.7090000    2.9410000    2.6170000 
  O    0.2700000    2.1230000   -2.8580000 
  H    1.1250000    2.0370000   -2.4370000 
  H    0.3410000    1.5980000   -3.6550000 
  O    2.6950000    4.9750000    1.4620000 
  H    2.8440000    5.8870000    1.2130000 
  H    1.7490000    4.9110000    1.5880000 
  O   -1.4590000   -1.6360000    3.1760000 
  H   -0.8960000   -0.8640000    3.1160000 
  H   -1.8100000   -1.7460000    2.2930000 
  O   -3.5390000    5.1170000   -0.8380000 
  H   -2.7360000    4.7800000   -1.2360000 
  H   -4.2010000    5.0300000   -1.5240000 
  O    0.1820000    0.5170000    3.1080000 
  H    0.9710000    0.7330000    3.6060000 
  H   -0.4770000    1.1370000    3.4210000 
  O    4.1470000    1.5940000    3.1180000 
  H    3.8980000    1.4180000    2.2110000 
  H    4.3990000    2.5170000    3.1230000 
  O   -6.0220000    2.5060000   -2.6270000 
  H   -5.8980000    3.4550000   -2.6110000 
  H   -5.7090000    2.2380000   -3.4910000 
  O    2.5610000   -5.3720000    1.8110000 
  H    1.6390000   -5.4880000    2.0440000 
  H    2.5470000   -5.1450000    0.8810000 
  O    6.1340000   -3.2860000    0.1330000 
  H    6.6350000   -3.2700000    0.9480000 
  H    5.9330000   -2.3670000   -0.0430000 
  O   -4.9130000    3.6530000    1.4580000 
  H   -4.2240000    4.0790000    0.9490000 
  H   -5.7270000    3.9130000    1.0260000 
  O    1.4940000   -5.0280000   -0.6850000 
  H    0.8530000   -4.3270000   -0.8050000 
  H    1.7520000   -5.2730000   -1.5740000 
  O   -7.5120000   -2.4420000    1.4060000 
  H   -7.8800000   -2.5590000    0.5300000 
  H   -6.5780000   -2.6200000    1.2990000 
  O   -4.7330000    2.0690000    3.8210000 
  H   -5.1320000    2.4000000    3.0160000 
  H   -4.9450000    2.7280000    4.4820000 
  O    7.3490000    4.8760000   -0.6200000 
  H    7.3990000    5.6060000   -0.0030000 
  H    6.5560000    4.4030000   -0.3690000 
  O   -4.3200000   -0.4290000    4.4480000 
  H   -4.3980000   -0.3850000    5.4010000 
  H   -4.4760000    0.4690000    4.1530000 
  O    0.4440000    5.3010000   -0.2960000 
  H    0.9600000    6.0550000   -0.5820000 
  H   -0.0180000    5.0130000   -1.0840000 
  O   -1.1780000    4.2840000   -2.4420000 
  H   -0.9550000    4.6190000   -3.3110000 
  H   -0.8970000    3.3690000   -2.4590000 
  O    3.4770000    2.4570000   -2.5730000 
  H    3.3270000    1.9990000   -1.7460000 
  H    3.8470000    1.7900000   -3.1520000 
