111 
   0.0000000000 
  O   -4.8870000   -1.5330000    0.0000000 
  C   -3.9630000   -0.7500000    0.0000000 
  N   -2.6280000   -1.0860000    0.0000000 
  C   -1.8410000   -0.0460000    0.0000000 
  S   -2.5990000    1.5730000    0.0000000 
  C   -4.2160000    0.7730000    0.0000000 
  C   -0.4290000   -0.1000000    0.0000000 
  S    0.4830000   -1.6180000    0.0000000 
  C    1.9690000   -0.6920000    0.0000000 
  C    3.2670000   -1.1300000    0.0000000 
  C    1.6220000    0.7010000    0.0000000 
  N    0.3190000    0.9860000    0.0000000 
  C    2.6720000    1.6620000    0.0000000 
  C    3.9620000    1.2460000    0.0000000 
  C    4.3510000   -0.1720000    0.0000000 
  O    5.5480000   -0.5080000    0.0000000 
  H   -4.7940000    1.0660000    0.8880000 
  H   -4.7930000    1.0340000   -0.8880000 
  H    3.5290000   -2.1820000    0.0000000 
  H    2.4040000    2.7140000    0.0000000 
  H    4.7790000    1.9610000    0.0000000 
  O    4.7340000   -4.7070000   -0.8300000 
  H    4.6220000   -4.6780000   -1.7800000 
  H    5.6610000   -4.5120000   -0.6920000 
  O    1.5790000   -2.8340000    3.0990000 
  H    1.9240000   -1.9650000    2.8940000 
  H    2.1030000   -3.4320000    2.5670000 
  O    2.3370000    0.0460000    3.0050000 
  H    2.4880000   -0.0110000    2.0620000 
  H    3.1950000    0.2580000    3.3730000 
  O   -0.5720000    3.3090000    2.6340000 
  H   -0.3150000    3.3450000    1.7120000 
  H   -0.2370000    2.4670000    2.9440000 
  O   -6.3320000    0.9540000   -3.8520000 
  H   -6.0710000    0.0810000   -4.1430000 
  H   -5.5070000    1.4020000   -3.6660000 
  O    7.7050000    2.5150000    1.6540000 
  H    7.3730000    3.2030000    1.0780000 
  H    7.7520000    2.9270000    2.5170000 
  O   -1.5810000   -1.9430000    2.7480000 
  H   -1.9860000   -2.2860000    1.9510000 
  H   -2.1820000   -2.1940000    3.4500000 
  O   -6.2630000   -2.4020000    2.6080000 
  H   -6.5670000   -1.9730000    3.4070000 
  H   -6.7770000   -2.0010000    1.9090000 
  O    7.7910000   -2.3120000   -1.8080000 
  H    7.9760000   -2.5000000   -0.8870000 
  H    7.0750000   -1.6770000   -1.7840000 
  O    3.1900000   -5.1280000    1.5420000 
  H    3.4550000   -4.7740000    0.6930000 
  H    3.8820000   -5.7500000    1.7690000 
  O   -5.1510000    3.7680000    2.4130000 
  H   -5.6860000    4.2880000    1.8140000 
  H   -5.7840000    3.2920000    2.9500000 
  O    1.2010000    2.0970000   -3.1370000 
  H    0.6190000    1.7600000   -2.4560000 
  H    2.0170000    1.6120000   -3.0170000 
  O    2.4130000    5.1400000    2.7330000 
  H    1.7680000    4.8670000    2.0790000 
  H    3.0770000    4.4510000    2.7160000 
  O   -0.4370000    0.7690000    3.3040000 
  H   -1.0420000    0.0360000    3.1920000 
  H    0.4330000    0.3750000    3.2360000 
  O    4.0030000    2.6440000    2.4960000 
  H    4.9070000    2.3270000    2.4920000 
  H    3.6430000    2.3510000    1.6590000 
  O   -5.1930000    0.3780000    3.9300000 
  H   -4.7960000    1.1500000    4.3320000 
  H   -6.0940000    0.3750000    4.2540000 
  O    5.7090000    0.4580000    2.6480000 
  H    5.6040000    0.1430000    1.7510000 
  H    5.7770000   -0.3380000    3.1750000 
  O    8.3010000    0.0310000    0.6010000 
  H    8.3080000    0.9520000    0.8600000 
  H    7.4180000   -0.1170000    0.2630000 
  O    5.6920000    3.5350000   -2.1400000 
  H    6.0550000    3.7700000   -1.2860000 
  H    6.2470000    3.9940000   -2.7710000 
  O   -4.1280000    2.7610000   -3.2170000 
  H   -3.2260000    2.6710000   -3.5260000 
  H   -4.1540000    3.6230000   -2.8020000 
  O    0.5080000    4.6340000    0.3680000 
  H   -0.2010000    5.2680000    0.2570000 
  H    1.1490000    4.8700000   -0.3020000 
  O    6.5330000   -2.8340000    0.8030000 
  H    6.6120000   -2.6630000    1.7410000 
  H    6.1470000   -2.0350000    0.4440000 
  O   -4.0680000   -3.7980000    2.0020000 
  H   -4.8470000   -3.2580000    2.1350000 
  H   -3.7980000   -3.6120000    1.1030000 
  O    6.8700000    1.0520000   -1.8300000 
  H    6.3930000    0.5200000   -1.1920000 
  H    6.5210000    1.9350000   -1.7140000 
  O   -7.7680000    0.7840000   -1.6270000 
  H   -7.4160000    0.6470000   -2.5070000 
  H   -7.7740000    1.7340000   -1.5170000 
  O    5.1350000   -1.2450000   -2.5940000 
  H    4.8360000   -0.4010000   -2.9310000 
  H    4.9920000   -1.1900000   -1.6490000 
  O    3.1680000    5.0850000   -0.4710000 
  H    3.8420000    4.4540000   -0.2180000 
  H    3.2870000    5.1980000   -1.4140000 
  O    6.1240000    4.6900000    0.4540000 
  H    6.5310000    4.6900000    1.3200000 
  H    5.8660000    5.6010000    0.3110000 
  O    0.1060000   -5.0170000    1.1100000 
  H    0.3680000   -4.1670000    0.7570000 
  H    0.0410000   -4.8750000    2.0550000 
  O    3.7430000    1.1580000   -2.5990000 
  H    4.3120000    1.9180000   -2.4730000 
  H    3.6560000    0.7760000   -1.7250000 
