111 
   0.0000000000 
  O   -4.8870000   -1.5330000    0.0000000 
  C   -3.9630000   -0.7500000    0.0000000 
  N   -2.6280000   -1.0860000    0.0000000 
  C   -1.8410000   -0.0460000    0.0000000 
  S   -2.5990000    1.5730000    0.0000000 
  C   -4.2160000    0.7730000    0.0000000 
  C   -0.4290000   -0.1000000    0.0000000 
  S    0.4830000   -1.6180000    0.0000000 
  C    1.9690000   -0.6920000    0.0000000 
  C    3.2670000   -1.1300000    0.0000000 
  C    1.6220000    0.7010000    0.0000000 
  N    0.3190000    0.9860000    0.0000000 
  C    2.6720000    1.6620000    0.0000000 
  C    3.9620000    1.2460000    0.0000000 
  C    4.3510000   -0.1720000    0.0000000 
  O    5.5480000   -0.5080000    0.0000000 
  H   -4.7940000    1.0660000    0.8880000 
  H   -4.7930000    1.0340000   -0.8880000 
  H    3.5290000   -2.1820000    0.0000000 
  H    2.4040000    2.7140000    0.0000000 
  H    4.7790000    1.9610000    0.0000000 
  O   -7.6250000   -0.1560000    0.9120000 
  H   -7.3710000   -0.4010000    1.8020000 
  H   -7.6540000    0.8010000    0.9260000 
  O    3.7880000    1.8870000    2.9900000 
  H    2.9370000    1.9520000    3.4220000 
  H    3.5800000    1.7550000    2.0650000 
  O    5.2870000   -2.9890000    1.3060000 
  H    5.6910000   -2.9500000    2.1740000 
  H    5.2140000   -2.0740000    1.0340000 
  O    2.4750000    5.7830000    0.0700000 
  H    2.3240000    6.5840000    0.5710000 
  H    3.3950000    5.5700000    0.2280000 
  O    1.3640000   -5.0640000    0.3230000 
  H    0.4250000   -4.8900000    0.3930000 
  H    1.7590000   -4.5270000    1.0090000 
  O    7.8890000    2.6350000    1.2630000 
  H    7.4470000    1.8590000    1.6070000 
  H    7.7550000    3.3050000    1.9340000 
  O   -5.0650000   -0.4260000   -3.0070000 
  H   -4.6860000   -1.1830000   -3.4530000 
  H   -4.3870000    0.2480000   -3.0590000 
  O    4.0130000    1.2860000   -2.9070000 
  H    3.9920000    1.2990000   -1.9500000 
  H    4.7850000    0.7620000   -3.1230000 
  O    8.0170000   -1.8930000   -0.6020000 
  H    7.3190000   -1.2440000   -0.5150000 
  H    8.1670000   -2.2040000    0.2910000 
  O   -3.6930000    1.9290000   -3.0030000 
  H   -2.9090000    1.7600000   -3.5260000 
  H   -3.5940000    2.8350000   -2.7100000 
  O   -5.7680000    3.6620000   -1.6270000 
  H   -6.6840000    3.3840000   -1.6000000 
  H   -5.3020000    2.9140000   -2.0000000 
  O    2.7500000   -4.1230000   -1.9200000 
  H    1.9500000   -3.8230000   -2.3520000 
  H    2.4410000   -4.6830000   -1.2070000 
  O    6.5130000    0.5720000    2.2550000 
  H    6.0620000    0.2480000    1.4750000 
  H    5.8110000    0.8800000    2.8280000 
  O   -7.3060000    2.6310000    1.1240000 
  H   -7.8400000    3.0650000    0.4590000 
  H   -6.6560000    3.2870000    1.3750000 
  O   -0.9150000    0.3390000   -2.9690000 
  H   -0.0160000    0.0190000   -3.0400000 
  H   -1.0300000    0.9040000   -3.7330000 
  O    6.9090000    3.1280000   -1.1560000 
  H    7.4690000    2.9510000   -0.4000000 
  H    7.0700000    4.0480000   -1.3640000 
  O   -7.1790000   -3.6540000   -0.4850000 
  H   -6.6210000   -3.0810000   -1.0110000 
  H   -6.9210000   -3.4770000    0.4190000 
  O    5.1300000   -2.1990000   -2.2060000 
  H    4.2960000   -2.6540000   -2.0920000 
  H    5.1240000   -1.5160000   -1.5350000 
  O   -2.0570000   -2.9450000   -1.9090000 
  H   -2.2760000   -2.3020000   -1.2350000 
  H   -2.5830000   -2.6870000   -2.6660000 
  O    4.2690000   -5.5300000    1.8340000 
  H    4.0340000   -6.0460000    1.0630000 
  H    4.4430000   -4.6530000    1.4920000 
  O    1.7650000   -0.3280000   -3.2280000 
  H    2.4170000    0.3630000   -3.3410000 
  H    2.1160000   -0.8760000   -2.5250000 
  O    6.5180000    0.8240000   -2.3360000 
  H    6.6130000    1.7170000   -2.0060000 
  H    6.1450000    0.3360000   -1.6020000 
  O   -1.4610000   -4.5660000    0.3570000 
  H   -1.5570000   -3.9440000   -0.3640000 
  H   -2.2300000   -4.4170000    0.9060000 
  O    2.2870000   -0.8280000    3.0580000 
  H    3.0160000   -0.3700000    3.4760000 
  H    2.6060000   -1.0350000    2.1800000 
  O    4.9120000    5.1050000   -0.4540000 
  H    4.6320000    5.2000000   -1.3640000 
  H    5.4980000    4.3480000   -0.4610000 
  O    0.2440000    2.8420000   -2.5020000 
  H    0.0140000    1.9410000   -2.2740000 
  H   -0.5920000    3.2570000   -2.7130000 
  O   -5.0620000    3.9190000    2.0530000 
  H   -4.2250000    4.2470000    1.7250000 
  H   -4.8440000    3.4940000    2.8830000 
  O   -0.0470000    5.0830000   -0.7240000 
  H    0.8250000    5.4120000   -0.5060000 
  H    0.1050000    4.4440000   -1.4210000 
  O   -1.9540000   -2.0380000    2.4700000 
  H   -1.9620000   -2.0470000    1.5130000 
  H   -2.2240000   -1.1500000    2.7040000 
  O   -3.9830000   -4.2660000    2.0640000 
  H   -4.8170000   -4.7070000    2.2260000 
  H   -4.1430000   -3.3540000    2.3080000 
