111 
   0.0000000000 
  O   -4.8870000   -1.5330000    0.0000000 
  C   -3.9630000   -0.7500000    0.0000000 
  N   -2.6280000   -1.0860000    0.0000000 
  C   -1.8410000   -0.0460000    0.0000000 
  S   -2.5990000    1.5730000    0.0000000 
  C   -4.2160000    0.7730000    0.0000000 
  C   -0.4290000   -0.1000000    0.0000000 
  S    0.4830000   -1.6180000    0.0000000 
  C    1.9690000   -0.6920000    0.0000000 
  C    3.2670000   -1.1300000    0.0000000 
  C    1.6220000    0.7010000    0.0000000 
  N    0.3190000    0.9860000    0.0000000 
  C    2.6720000    1.6620000    0.0000000 
  C    3.9620000    1.2460000    0.0000000 
  C    4.3510000   -0.1720000    0.0000000 
  O    5.5480000   -0.5080000    0.0000000 
  H   -4.7940000    1.0660000    0.8880000 
  H   -4.7930000    1.0340000   -0.8880000 
  H    3.5290000   -2.1820000    0.0000000 
  H    2.4040000    2.7140000    0.0000000 
  H    4.7790000    1.9610000    0.0000000 
  O    6.1100000   -0.0530000    2.4640000 
  H    6.9520000   -0.4650000    2.2740000 
  H    5.6280000   -0.1000000    1.6370000 
  O    4.9520000   -3.3620000    2.1330000 
  H    5.1010000   -2.4970000    1.7510000 
  H    4.1950000   -3.7060000    1.6590000 
  O   -0.4070000    4.2720000   -2.3570000 
  H   -0.4420000    3.3190000   -2.2810000 
  H   -1.3230000    4.5420000   -2.4170000 
  O   -5.6750000   -3.6500000   -1.9450000 
  H   -4.7760000   -3.6840000   -1.6190000 
  H   -6.2120000   -3.5410000   -1.1600000 
  O    2.6630000   -1.4770000   -2.8330000 
  H    2.6980000   -1.5890000   -1.8830000 
  H    3.0010000   -0.5940000   -2.9830000 
  O   -4.3420000   -1.4150000   -3.1550000 
  H   -4.3880000   -2.2910000   -2.7740000 
  H   -3.7960000   -1.5200000   -3.9340000 
  O    1.4830000    4.8550000    1.4190000 
  H    0.8570000    4.1310000    1.4100000 
  H    1.4830000    5.1830000    0.5190000 
  O    3.2560000    1.1380000    2.8060000 
  H    3.8860000    0.5710000    3.2490000 
  H    3.4660000    1.0500000    1.8760000 
  O   -5.4440000    1.7900000   -3.9190000 
  H   -5.8880000    2.1690000   -3.1610000 
  H   -5.6950000    0.8670000   -3.9080000 
  O   -0.2440000   -0.6060000    3.2300000 
  H   -1.0540000   -1.0420000    3.4940000 
  H   -0.3140000    0.2740000    3.5990000 
  O   -2.9060000   -3.5840000   -1.5360000 
  H   -2.1560000   -3.7110000   -2.1170000 
  H   -2.6200000   -2.9110000   -0.9180000 
  O   -3.9820000    3.0760000    3.1000000 
  H   -3.2860000    3.5140000    2.6100000 
  H   -3.9030000    3.4210000    3.9890000 
  O    6.7310000    1.0670000   -1.9440000 
  H    6.2790000    0.6540000   -1.2080000 
  H    6.6540000    0.4350000   -2.6580000 
  O   -6.5730000    2.5550000   -1.5960000 
  H   -6.1030000    3.3880000   -1.5780000 
  H   -7.2270000    2.6340000   -0.9020000 
  O    3.1010000   -4.7190000    0.7710000 
  H    2.2240000   -5.0820000    0.8950000 
  H    3.6820000   -5.4790000    0.8040000 
  O    1.3890000    5.9330000   -1.1250000 
  H    0.7740000    6.6640000   -1.1740000 
  H    0.9610000    5.2260000   -1.6090000 
  O    8.0820000   -1.1390000    0.9330000 
  H    8.4270000   -0.2870000    1.1980000 
  H    7.4520000   -0.9390000    0.2410000 
  O    3.8120000    4.0240000    2.9150000 
  H    3.0940000    4.2910000    2.3400000 
  H    3.5110000    3.2060000    3.3110000 
  O    0.3250000    2.7910000    2.8230000 
  H    1.1400000    2.2990000    2.7210000 
  H   -0.0820000    2.4200000    3.6060000 
  O    1.3000000   -4.2660000   -2.3660000 
  H    2.0560000   -3.6800000   -2.3990000 
  H    1.2740000   -4.6720000   -3.2320000 
  O   -7.5520000   -0.8050000    0.6870000 
  H   -7.7510000   -0.6370000   -0.2340000 
  H   -6.8200000   -1.4210000    0.6650000 
  O   -5.2820000   -4.8540000    0.7060000 
  H   -4.7340000   -4.3660000    1.3220000 
  H   -6.1790000   -4.6410000    0.9630000 
  O   -4.7300000    0.4110000    3.6660000 
  H   -4.6820000    1.3110000    3.3460000 
  H   -5.1570000    0.4820000    4.5190000 
  O    2.5090000   -1.5950000    3.3870000 
  H    1.6290000   -1.2210000    3.3640000 
  H    2.9190000   -1.2960000    2.5760000 
  O   -1.5750000    4.5820000    2.0120000 
  H   -0.9350000    5.0870000    2.5130000 
  H   -1.1360000    3.7520000    1.8280000 
  O   -8.2140000   -0.4450000   -1.8390000 
  H   -7.8880000   -1.0270000   -2.5250000 
  H   -7.8810000    0.4200000   -2.0800000 
  O    4.1220000   -4.2290000   -2.0330000 
  H    3.9900000   -5.0750000   -2.4620000 
  H    3.6990000   -4.3260000   -1.1790000 
  O    6.3190000   -2.4450000   -1.6660000 
  H    5.5270000   -2.9250000   -1.9060000 
  H    6.0210000   -1.7870000   -1.0380000 
  O    3.9030000    2.3630000   -2.6550000 
  H    3.5110000    1.7900000   -1.9960000 
  H    4.8410000    2.1770000   -2.6070000 
  O    6.4530000    2.9690000    2.4010000 
  H    6.5040000    2.1240000    1.9540000 
  H    5.5240000    3.1960000    2.3820000 
