111 
   0.0000000000 
  O   -4.8870000   -1.5330000    0.0000000 
  C   -3.9630000   -0.7500000    0.0000000 
  N   -2.6280000   -1.0860000    0.0000000 
  C   -1.8410000   -0.0460000    0.0000000 
  S   -2.5990000    1.5730000    0.0000000 
  C   -4.2160000    0.7730000    0.0000000 
  C   -0.4290000   -0.1000000    0.0000000 
  S    0.4830000   -1.6180000    0.0000000 
  C    1.9690000   -0.6920000    0.0000000 
  C    3.2670000   -1.1300000    0.0000000 
  C    1.6220000    0.7010000    0.0000000 
  N    0.3190000    0.9860000    0.0000000 
  C    2.6720000    1.6620000    0.0000000 
  C    3.9620000    1.2460000    0.0000000 
  C    4.3510000   -0.1720000    0.0000000 
  O    5.5480000   -0.5080000    0.0000000 
  H   -4.7940000    1.0660000    0.8880000 
  H   -4.7930000    1.0340000   -0.8880000 
  H    3.5290000   -2.1820000    0.0000000 
  H    2.4040000    2.7140000    0.0000000 
  H    4.7790000    1.9610000    0.0000000 
  O   -2.6060000    1.9930000    3.2990000 
  H   -1.8360000    1.4580000    3.4890000 
  H   -3.3480000    1.4480000    3.5600000 
  O    3.0390000    3.4360000    2.7030000 
  H    3.2910000    2.5830000    2.3490000 
  H    3.0230000    4.0160000    1.9410000 
  O    2.9000000   -0.7370000   -2.9630000 
  H    2.9560000   -0.5430000   -2.0280000 
  H    2.0200000   -0.4540000   -3.2140000 
  O    4.4120000   -4.4330000    2.3470000 
  H    3.5500000   -4.3990000    1.9320000 
  H    4.7310000   -3.5310000    2.3120000 
  O   -5.8270000    1.2500000   -3.4460000 
  H   -6.5450000    1.8830000   -3.4700000 
  H   -5.0550000    1.7530000   -3.7060000 
  O    8.0010000   -2.2540000    0.6820000 
  H    7.2850000   -1.7020000    0.3680000 
  H    7.8030000   -2.4020000    1.6070000 
  O   -4.4190000   -2.6060000    2.9800000 
  H   -4.1950000   -3.5270000    3.1170000 
  H   -4.1420000   -2.1700000    3.7860000 
  O    0.7330000    4.0240000   -2.1210000 
  H    1.2580000    4.8170000   -2.0090000 
  H    1.3490000    3.3740000   -2.4580000 
  O    4.9400000   -3.6270000   -2.0150000 
  H    5.1300000   -2.6910000   -2.0780000 
  H    5.6660000   -3.9850000   -1.5040000 
  O   -2.6460000    4.4390000    2.1340000 
  H   -2.6560000    3.5110000    2.3660000 
  H   -1.7910000    4.5760000    1.7270000 
  O    0.3820000    3.4600000    3.1300000 
  H    1.3220000    3.6270000    3.1890000 
  H    0.1530000    3.6860000    2.2290000 
  O   -7.0900000   -2.7840000    0.9470000 
  H   -7.9300000   -2.4340000    0.6480000 
  H   -6.4390000   -2.1770000    0.5970000 
  O   -2.1920000   -3.6580000    0.7970000 
  H   -3.0350000   -3.9850000    0.4820000 
  H   -2.1490000   -2.7570000    0.4760000 
  O    4.3830000    0.7960000    2.8470000 
  H    4.1100000    0.7000000    1.9340000 
  H    4.0340000    0.0190000    3.2840000 
  O    6.0420000    4.5950000   -0.1610000 
  H    6.8490000    4.0930000   -0.0410000 
  H    6.2760000    5.4880000    0.0920000 
  O   -0.3400000    4.5430000    0.3780000 
  H   -0.4110000    4.2350000   -0.5260000 
  H   -0.1100000    5.4690000    0.2980000 
  O    6.7970000   -1.5720000   -2.3610000 
  H    6.6840000   -0.9330000   -3.0640000 
  H    6.2850000   -1.2220000   -1.6330000 
  O    3.5810000    2.7340000   -2.4870000 
  H    3.8070000    2.3260000   -3.3230000 
  H    3.5700000    2.0100000   -1.8610000 
  O    5.6220000   -2.1450000    2.5410000 
  H    5.7440000   -1.9230000    3.4640000 
  H    5.5380000   -1.2990000    2.1000000 
  O    2.3150000   -4.9940000    0.7640000 
  H    2.2510000   -5.9220000    0.5360000 
  H    1.5410000   -4.5960000    0.3640000 
  O   -7.5190000    2.4280000    1.7160000 
  H   -8.1380000    1.7680000    2.0280000 
  H   -7.3270000    2.1680000    0.8140000 
  O   -0.0880000   -5.0910000   -0.5650000 
  H   -0.2320000   -4.8290000   -1.4740000 
  H   -0.4630000   -4.3780000   -0.0480000 
  O    6.3690000    3.3760000    2.3330000 
  H    5.9950000    3.5310000    3.2010000 
  H    5.7410000    3.7710000    1.7280000 
  O    7.4030000    1.4100000   -2.2200000 
  H    6.6990000    1.2320000   -1.5970000 
  H    6.9840000    1.3560000   -3.0790000 
  O   -7.4210000    1.2410000   -0.8340000 
  H   -8.3730000    1.2540000   -0.7370000 
  H   -7.2570000    1.7010000   -1.6570000 
  O   -4.7580000   -4.3980000   -0.1210000 
  H   -4.6830000   -3.6100000    0.4170000 
  H   -5.5180000   -4.2350000   -0.6800000 
  O   -4.8030000    0.6810000    3.7280000 
  H   -4.7120000   -0.0760000    4.3060000 
  H   -5.6190000    1.0980000    4.0040000 
  O    7.4740000    0.6170000    1.6750000 
  H    6.9760000    1.3410000    2.0560000 
  H    7.0050000    0.4020000    0.8690000 
  O   -2.0860000   -2.4590000   -3.5480000 
  H   -2.8500000   -2.1230000   -3.0790000 
  H   -1.9840000   -1.8700000   -4.2950000 
  O    2.8770000   -1.2810000    3.7980000 
  H    3.1600000   -1.5890000    2.9370000 
  H    2.6120000   -2.0750000    4.2620000 
