111 
   0.0000000000 
  O   -4.8870000   -1.5330000    0.0000000 
  C   -3.9630000   -0.7500000    0.0000000 
  N   -2.6280000   -1.0860000    0.0000000 
  C   -1.8410000   -0.0460000    0.0000000 
  S   -2.5990000    1.5730000    0.0000000 
  C   -4.2160000    0.7730000    0.0000000 
  C   -0.4290000   -0.1000000    0.0000000 
  S    0.4830000   -1.6180000    0.0000000 
  C    1.9690000   -0.6920000    0.0000000 
  C    3.2670000   -1.1300000    0.0000000 
  C    1.6220000    0.7010000    0.0000000 
  N    0.3190000    0.9860000    0.0000000 
  C    2.6720000    1.6620000    0.0000000 
  C    3.9620000    1.2460000    0.0000000 
  C    4.3510000   -0.1720000    0.0000000 
  O    5.5480000   -0.5080000    0.0000000 
  H   -4.7940000    1.0660000    0.8880000 
  H   -4.7930000    1.0340000   -0.8880000 
  H    3.5290000   -2.1820000    0.0000000 
  H    2.4040000    2.7140000    0.0000000 
  H    4.7790000    1.9610000    0.0000000 
  O   -4.7610000   -4.3040000   -0.9660000 
  H   -5.6240000   -4.5400000   -0.6240000 
  H   -4.6460000   -3.3880000   -0.7140000 
  O    0.3890000    3.5030000   -1.3730000 
  H    0.5620000    2.5610000   -1.3710000 
  H    0.1350000    3.6990000   -2.2750000 
  O    4.9500000    3.8790000    2.0890000 
  H    4.6850000    4.2990000    1.2700000 
  H    4.6550000    4.4800000    2.7730000 
  O   -4.3840000    3.5950000    1.6050000 
  H   -5.1360000    4.0740000    1.9530000 
  H   -3.7010000    3.7060000    2.2670000 
  O   -7.7720000    3.5110000   -0.9290000 
  H   -7.4910000    4.2980000   -1.3970000 
  H   -7.3290000    2.7930000   -1.3810000 
  O    2.3300000   -1.4030000   -2.7150000 
  H    2.3510000   -2.3290000   -2.4750000 
  H    2.5260000   -0.9400000   -1.9000000 
  O   -5.8810000    1.1760000    3.2380000 
  H   -5.3300000    1.8330000    3.6620000 
  H   -5.5300000    0.3380000    3.5380000 
  O   -7.5760000   -2.0880000    1.9620000 
  H   -6.7820000   -2.6160000    1.8900000 
  H   -7.3230000   -1.2270000    1.6290000 
  O    0.4940000    5.8520000    0.5220000 
  H    0.3860000    5.0550000    0.0020000 
  H    0.8190000    6.5020000   -0.1000000 
  O    3.0240000    2.2930000   -2.9570000 
  H    3.7840000    1.9770000   -3.4460000 
  H    3.1790000    1.9990000   -2.0590000 
  O    6.6160000   -2.3550000   -1.5780000 
  H    6.7720000   -1.4710000   -1.9090000 
  H    5.9860000   -2.2380000   -0.8670000 
  O    6.1260000    3.1790000   -2.0030000 
  H    6.6640000    3.5330000   -2.7110000 
  H    6.4200000    3.6460000   -1.2210000 
  O   -3.7010000    4.3480000   -1.2850000 
  H   -3.8170000    3.8660000   -0.4660000 
  H   -3.1200000    3.7950000   -1.8080000 
  O   -7.4910000    0.6130000    0.9160000 
  H   -8.4270000    0.6510000    1.1120000 
  H   -7.0640000    0.8560000    1.7370000 
  O    4.2070000   -4.8160000    1.5140000 
  H    3.6820000   -4.4080000    2.2030000 
  H    5.0040000   -4.2870000    1.4760000 
  O   -1.6960000   -4.5730000   -0.3770000 
  H   -2.0460000   -3.7100000   -0.1570000 
  H   -0.9850000   -4.3940000   -0.9930000 
  O   -8.3280000   -1.0390000   -1.3370000 
  H   -7.7550000   -1.1690000   -2.0940000 
  H   -7.8710000   -0.3930000   -0.7990000 
  O    0.6300000    0.1640000    3.5840000 
  H    0.8630000    0.2820000    4.5040000 
  H    1.4690000    0.1580000    3.1220000 
  O    6.2790000   -2.9640000    1.2490000 
  H    7.2000000   -2.8390000    1.4750000 
  H    6.0210000   -2.1430000    0.8290000 
  O   -0.1590000   -3.4850000   -2.8470000 
  H   -0.1510000   -4.0050000   -3.6510000 
  H    0.7380000   -3.1620000   -2.7610000 
  O    7.9230000    0.7280000    0.0420000 
  H    7.0250000    0.4220000    0.1660000 
  H    7.9430000    1.5880000    0.4620000 
  O   -6.6930000    1.6040000   -2.4460000 
  H   -5.7820000    1.7840000   -2.6810000 
  H   -6.8720000    0.7430000   -2.8220000 
  O   -4.2640000    1.5750000   -3.5930000 
  H   -3.3690000    1.2430000   -3.5260000 
  H   -4.3160000    1.9510000   -4.4710000 
  O    0.3900000    3.2960000    2.5180000 
  H    1.1040000    2.7760000    2.8870000 
  H    0.7330000    3.6180000    1.6840000 
  O    3.7440000    5.2870000   -0.7710000 
  H    3.4440000    4.7490000   -1.5040000 
  H    4.5920000    5.6270000   -1.0540000 
  O    5.8540000    0.5770000   -2.4180000 
  H    5.5000000    0.4200000   -1.5430000 
  H    5.9310000    1.5290000   -2.4780000 
  O    3.2320000   -0.3560000    2.7250000 
  H    3.5770000   -0.0340000    1.8920000 
  H    3.0230000   -1.2750000    2.5600000 
  O   -1.9210000   -2.5870000    2.3560000 
  H   -2.3510000   -2.1670000    1.6110000 
  H   -1.2320000   -3.1230000    1.9650000 
  O    5.9430000    1.1720000    2.4550000 
  H    5.5630000    2.0210000    2.2320000 
  H    5.5870000    0.5700000    1.8010000 
  O    8.0160000    3.3340000    1.2190000 
  H    7.2150000    3.8540000    1.1610000 
  H    8.7070000    3.9760000    1.3870000 
