111 
   0.0000000000 
  O   -4.8870000   -1.5330000    0.0000000 
  C   -3.9630000   -0.7500000    0.0000000 
  N   -2.6280000   -1.0860000    0.0000000 
  C   -1.8410000   -0.0460000    0.0000000 
  S   -2.5990000    1.5730000    0.0000000 
  C   -4.2160000    0.7730000    0.0000000 
  C   -0.4290000   -0.1000000    0.0000000 
  S    0.4830000   -1.6180000    0.0000000 
  C    1.9690000   -0.6920000    0.0000000 
  C    3.2670000   -1.1300000    0.0000000 
  C    1.6220000    0.7010000    0.0000000 
  N    0.3190000    0.9860000    0.0000000 
  C    2.6720000    1.6620000    0.0000000 
  C    3.9620000    1.2460000    0.0000000 
  C    4.3510000   -0.1720000    0.0000000 
  O    5.5480000   -0.5080000    0.0000000 
  H   -4.7940000    1.0660000    0.8880000 
  H   -4.7930000    1.0340000   -0.8880000 
  H    3.5290000   -2.1820000    0.0000000 
  H    2.4040000    2.7140000    0.0000000 
  H    4.7790000    1.9610000    0.0000000 
  O   -1.2740000    1.0540000   -3.0030000 
  H   -1.1390000    0.1290000   -3.2100000 
  H   -2.0710000    1.2910000   -3.4760000 
  O   -1.4420000   -1.3820000   -3.8470000 
  H   -1.7020000   -1.9490000   -3.1220000 
  H   -1.0270000   -1.9730000   -4.4760000 
  O    2.1560000    6.6750000    0.4380000 
  H    1.5490000    5.9480000    0.3000000 
  H    1.8720000    7.3460000   -0.1820000 
  O    6.2450000   -2.0850000    2.0090000 
  H    6.7830000   -1.4200000    2.4390000 
  H    5.9640000   -1.6750000    1.1920000 
  O   -1.5840000   -1.9080000    3.2230000 
  H   -0.6660000   -1.6640000    3.3410000 
  H   -1.6090000   -2.8460000    3.4110000 
  O   -4.4360000   -0.4120000   -2.9950000 
  H   -3.8960000   -0.0030000   -3.6710000 
  H   -4.8250000   -1.1730000   -3.4260000 
  O   -7.1680000    3.3900000   -1.3650000 
  H   -7.2390000    2.6120000   -1.9190000 
  H   -7.7830000    4.0150000   -1.7490000 
  O    6.7530000    1.4540000    1.4670000 
  H    6.3080000    0.7330000    1.0210000 
  H    6.0440000    1.9940000    1.8170000 
  O   -7.0470000    0.4760000   -2.5750000 
  H   -6.1680000    0.1930000   -2.8290000 
  H   -7.4060000   -0.2640000   -2.0870000 
  O   -2.8170000    4.0680000   -2.4280000 
  H   -1.8970000    4.0850000   -2.6930000 
  H   -3.2120000    3.3910000   -2.9790000 
  O   -0.1410000    3.5260000   -2.3990000 
  H    0.5660000    3.6300000   -3.0360000 
  H   -0.5160000    2.6670000   -2.5940000 
  O   -3.8050000    4.9040000    0.0660000 
  H   -4.5910000    4.4720000    0.4020000 
  H   -3.4290000    4.2740000   -0.5480000 
  O    5.7470000    0.8010000   -2.5080000 
  H    6.6110000    1.2080000   -2.4470000 
  H    5.5190000    0.5860000   -1.6030000 
  O   -0.1500000    4.6300000   -0.0230000 
  H   -0.0890000    4.5180000   -0.9710000 
  H   -0.8440000    4.0280000    0.2460000 
  O    3.5610000    2.2790000   -2.8730000 
  H    3.4090000    2.1480000   -1.9370000 
  H    4.0030000    1.4800000   -3.1580000 
  O    5.6500000   -3.4720000   -1.0850000 
  H    5.4760000   -4.2180000   -0.5120000 
  H    5.2760000   -2.7220000   -0.6230000 
  O    2.8990000   -0.9570000   -3.0580000 
  H    3.1400000   -0.9970000   -2.1330000 
  H    2.5020000   -0.0930000   -3.1660000 
  O   -2.1050000   -3.5300000   -2.4410000 
  H   -3.0320000   -3.5160000   -2.2050000 
  H   -1.8460000   -4.4460000   -2.3420000 
  O    6.9850000   -1.6650000   -3.1440000 
  H    6.6050000   -1.4350000   -2.2960000 
  H    6.8690000   -2.6130000   -3.2100000 
  O   -3.0810000    0.3930000    3.3340000 
  H   -2.3840000    1.0460000    3.3920000 
  H   -2.6210000   -0.4450000    3.2880000 
  O   -2.1540000   -4.0710000    0.5470000 
  H   -2.0930000   -3.2170000    0.1180000 
  H   -2.4140000   -3.8700000    1.4460000 
  O   -7.6290000   -0.2860000    1.6780000 
  H   -8.1870000   -0.6570000    2.3610000 
  H   -6.8850000    0.0860000    2.1520000 
  O    3.8030000    5.2720000   -2.4450000 
  H    3.6540000    4.3370000   -2.5840000 
  H    4.3900000    5.3130000   -1.6910000 
  O    3.7020000    1.0840000    2.8590000 
  H    3.2210000    1.9060000    2.9460000 
  H    3.7670000    0.9430000    1.9140000 
  O    5.4860000    4.1970000    1.7390000 
  H    5.4580000    4.4970000    0.8300000 
  H    4.7670000    4.6610000    2.1670000 
  O   -6.2100000   -3.5130000    1.2220000 
  H   -7.1170000   -3.2150000    1.2950000 
  H   -5.7440000   -2.7720000    0.8350000 
  O   -8.3810000   -1.1620000   -0.7470000 
  H   -8.1300000   -1.0920000    0.1740000 
  H   -9.2200000   -0.7040000   -0.8020000 
  O    8.2680000   -0.7240000   -0.0490000 
  H    8.4250000    0.2190000    0.0040000 
  H    7.3320000   -0.8020000   -0.2320000 
  O   -5.7680000    0.9570000    3.1890000 
  H   -4.8140000    0.8880000    3.2260000 
  H   -6.0650000    0.6480000    4.0450000 
  O    3.3230000   -2.0350000    2.6250000 
  H    4.0510000   -1.4390000    2.7980000 
  H    3.0030000   -1.7770000    1.7600000 
