111 
   0.0000000000 
  O   -4.8870000   -1.5330000    0.0000000 
  C   -3.9630000   -0.7500000    0.0000000 
  N   -2.6280000   -1.0860000    0.0000000 
  C   -1.8410000   -0.0460000    0.0000000 
  S   -2.5990000    1.5730000    0.0000000 
  C   -4.2160000    0.7730000    0.0000000 
  C   -0.4290000   -0.1000000    0.0000000 
  S    0.4830000   -1.6180000    0.0000000 
  C    1.9690000   -0.6920000    0.0000000 
  C    3.2670000   -1.1300000    0.0000000 
  C    1.6220000    0.7010000    0.0000000 
  N    0.3190000    0.9860000    0.0000000 
  C    2.6720000    1.6620000    0.0000000 
  C    3.9620000    1.2460000    0.0000000 
  C    4.3510000   -0.1720000    0.0000000 
  O    5.5480000   -0.5080000    0.0000000 
  H   -4.7940000    1.0660000    0.8880000 
  H   -4.7930000    1.0340000   -0.8880000 
  H    3.5290000   -2.1820000    0.0000000 
  H    2.4040000    2.7140000    0.0000000 
  H    4.7790000    1.9610000    0.0000000 
  O    5.7370000   -3.3250000   -0.8410000 
  H    5.4560000   -3.6900000   -1.6810000 
  H    5.4940000   -2.4000000   -0.8880000 
  O    2.5810000    4.9440000    1.5210000 
  H    3.2490000    5.6160000    1.3880000 
  H    1.8450000    5.4120000    1.9170000 
  O   -4.3230000   -1.3970000   -3.6610000 
  H   -4.2410000   -1.4030000   -4.6150000 
  H   -3.9770000   -0.5450000   -3.3960000 
  O   -1.8020000    0.7730000    3.0440000 
  H   -2.6360000    1.2080000    3.2190000 
  H   -1.1490000    1.4690000    3.1160000 
  O    2.2090000    0.1430000    2.8160000 
  H    2.7420000    0.3810000    2.0570000 
  H    1.6260000    0.8910000    2.9430000 
  O   -6.6640000    0.8650000    2.9090000 
  H   -7.1290000    0.7830000    2.0760000 
  H   -6.5570000   -0.0360000    3.2140000 
  O    8.2400000   -0.8700000    0.0290000 
  H    7.7050000   -0.0830000   -0.0730000 
  H    7.6060000   -1.5770000    0.1480000 
  O    4.1230000    2.7630000   -2.6730000 
  H    3.8740000    2.1820000   -1.9540000 
  H    4.3860000    3.5770000   -2.2430000 
  O   -8.1690000   -3.3510000   -0.2900000 
  H   -7.5180000   -3.2170000   -0.9790000 
  H   -8.8190000   -3.9330000   -0.6850000 
  O   -5.2100000   -4.7310000    0.7570000 
  H   -5.8120000   -4.0080000    0.5860000 
  H   -4.7080000   -4.4510000    1.5220000 
  O   -1.6380000   -1.4850000   -2.5750000 
  H   -1.6520000   -1.6320000   -1.6290000 
  H   -2.5570000   -1.5300000   -2.8390000 
  O   -6.1000000   -3.1680000   -2.1310000 
  H   -5.4060000   -3.8000000   -1.9450000 
  H   -5.6630000   -2.4680000   -2.6170000 
  O    2.8390000   -2.9850000    2.2370000 
  H    3.1020000   -2.6580000    3.0970000 
  H    2.9500000   -2.2360000    1.6510000 
  O    6.7660000    1.2390000    1.7380000 
  H    6.4690000    0.5830000    1.1070000 
  H    6.5930000    0.8460000    2.5930000 
  O   -4.3050000    2.0970000    3.6590000 
  H   -5.0140000    1.4660000    3.7810000 
  H   -4.7500000    2.9300000    3.5010000 
  O   -3.7530000    4.7550000    0.6450000 
  H   -3.9690000    5.0010000   -0.2550000 
  H   -4.5430000    4.3270000    0.9740000 
  O    5.4380000    5.1770000   -0.7390000 
  H    5.8410000    6.0450000   -0.7490000 
  H    5.8820000    4.7140000   -0.0280000 
  O   -3.7240000   -4.4460000   -1.6030000 
  H   -4.0910000   -4.9350000   -0.8660000 
  H   -3.1570000   -3.7910000   -1.1970000 
  O   -2.7610000    1.0350000   -3.6300000 
  H   -1.9870000    1.1530000   -3.0800000 
  H   -2.8480000    1.8610000   -4.1040000 
  O    2.6610000   -0.2320000   -2.9660000 
  H    2.8830000   -0.3060000   -2.0370000 
  H    3.3580000   -0.7070000   -3.4180000 
  O   -0.6140000    2.4340000   -2.4580000 
  H    0.2550000    2.1050000   -2.6890000 
  H   -0.5010000    3.3810000   -2.3830000 
  O    7.4450000    3.7030000    0.8360000 
  H    7.2690000    2.8120000    1.1370000 
  H    8.2610000    3.6320000    0.3410000 
  O    6.1160000   -1.6510000    2.8010000 
  H    6.0610000   -2.5570000    2.4980000 
  H    5.8230000   -1.1300000    2.0530000 
  O   -6.8780000    3.0410000   -0.3570000 
  H   -7.6100000    2.5300000   -0.0120000 
  H   -7.0020000    3.9160000    0.0110000 
  O    6.3730000    0.4970000   -2.4050000 
  H    6.6570000    1.3570000   -2.0970000 
  H    5.8750000    0.1320000   -1.6730000 
  O   -2.8850000   -1.9020000    3.4830000 
  H   -2.7060000   -0.9900000    3.2540000 
  H   -2.0270000   -2.3260000    3.4690000 
  O   -1.9800000   -3.5780000    1.1200000 
  H   -1.1750000   -3.4040000    1.6080000 
  H   -2.1850000   -2.7460000    0.6920000 
  O    4.1770000    3.0400000    2.8850000 
  H    3.4070000    3.5160000    2.5740000 
  H    4.4270000    2.4800000    2.1500000 
  O   -3.0290000    3.9040000   -2.8230000 
  H   -2.2980000    3.3550000   -2.5390000 
  H   -2.6160000    4.6420000   -3.2710000 
  O   -5.7450000    4.0070000   -2.6050000 
  H   -4.7900000    4.0610000   -2.6530000 
  H   -5.9210000    3.6180000   -1.7490000 
