111 
   0.0000000000 
  O   -4.8870000   -1.5330000    0.0000000 
  C   -3.9630000   -0.7500000    0.0000000 
  N   -2.6280000   -1.0860000    0.0000000 
  C   -1.8410000   -0.0460000    0.0000000 
  S   -2.5990000    1.5730000    0.0000000 
  C   -4.2160000    0.7730000    0.0000000 
  C   -0.4290000   -0.1000000    0.0000000 
  S    0.4830000   -1.6180000    0.0000000 
  C    1.9690000   -0.6920000    0.0000000 
  C    3.2670000   -1.1300000    0.0000000 
  C    1.6220000    0.7010000    0.0000000 
  N    0.3190000    0.9860000    0.0000000 
  C    2.6720000    1.6620000    0.0000000 
  C    3.9620000    1.2460000    0.0000000 
  C    4.3510000   -0.1720000    0.0000000 
  O    5.5480000   -0.5080000    0.0000000 
  H   -4.7940000    1.0660000    0.8880000 
  H   -4.7930000    1.0340000   -0.8880000 
  H    3.5290000   -2.1820000    0.0000000 
  H    2.4040000    2.7140000    0.0000000 
  H    4.7790000    1.9610000    0.0000000 
  O   -6.7030000    2.7100000    2.8010000 
  H   -6.7990000    2.8620000    1.8610000 
  H   -7.3290000    3.3100000    3.2060000 
  O    5.4620000    4.2930000   -1.0320000 
  H    6.3880000    4.3420000   -1.2690000 
  H    4.9980000    4.3500000   -1.8670000 
  O    3.9930000    1.4950000    2.7910000 
  H    3.4880000    1.6740000    1.9980000 
  H    4.9040000    1.4740000    2.4950000 
  O    3.8540000    2.9080000   -3.1220000 
  H    3.4730000    2.1550000   -2.6710000 
  H    3.5160000    3.6680000   -2.6480000 
  O    8.4060000   -1.9850000    2.1910000 
  H    7.7690000   -1.2870000    2.0350000 
  H    8.8840000   -2.0620000    1.3650000 
  O   -2.5620000    0.3870000   -3.6890000 
  H   -2.0450000    0.4040000   -4.4950000 
  H   -2.1640000   -0.3060000   -3.1630000 
  O    3.1940000   -4.8350000   -2.1540000 
  H    3.5150000   -4.8190000   -1.2520000 
  H    3.8710000   -5.3040000   -2.6420000 
  O   -6.0340000   -3.0830000    2.9390000 
  H   -5.4510000   -2.8040000    2.2330000 
  H   -5.6140000   -2.7630000    3.7370000 
  O   -2.1730000   -4.2210000   -0.6450000 
  H   -2.3950000   -3.3120000   -0.8480000 
  H   -1.9840000   -4.2180000    0.2940000 
  O   -5.2450000    0.8390000   -3.9630000 
  H   -4.4820000    0.2640000   -3.9000000 
  H   -5.9160000    0.4070000   -3.4350000 
  O   -8.0250000    1.3400000   -0.1840000 
  H   -8.8080000    1.4180000   -0.7290000 
  H   -7.6370000    2.2140000   -0.1940000 
  O    2.0100000   -0.5030000    3.0740000 
  H    2.4210000   -0.7510000    2.2460000 
  H    2.4550000    0.3050000    3.3310000 
  O    2.6610000    5.4190000   -2.2450000 
  H    2.2450000    5.5160000   -1.3890000 
  H    1.9310000    5.3290000   -2.8580000 
  O   -6.6730000   -0.4910000   -2.0790000 
  H   -6.7870000   -0.1420000   -1.1950000 
  H   -7.5570000   -0.5100000   -2.4460000 
  O   -5.5230000   -3.8710000   -0.9830000 
  H   -4.5720000   -3.8970000   -1.0900000 
  H   -5.7070000   -2.9760000   -0.6970000 
  O    3.7650000   -4.6630000    0.4640000 
  H    3.1130000   -4.4760000    1.1390000 
  H    4.5740000   -4.2730000    0.7960000 
  O    5.2190000   -2.6160000    1.9290000 
  H    5.1450000   -1.7990000    1.4370000 
  H    4.8110000   -2.4260000    2.7740000 
  O    6.1560000    0.4990000   -2.3930000 
  H    5.3450000    0.2600000   -2.8410000 
  H    6.0040000    0.2600000   -1.4780000 
  O    6.8260000    0.4990000    2.1950000 
  H    7.7370000    0.6530000    1.9430000 
  H    6.3860000    0.2690000    1.3760000 
  O   -3.7120000    2.9100000   -2.9560000 
  H   -4.2510000    2.2890000   -3.4460000 
  H   -2.8460000    2.5050000   -2.9270000 
  O   -2.6890000   -3.1870000    2.0260000 
  H   -2.5820000   -2.3490000    1.5760000 
  H   -2.3670000   -3.0260000    2.9120000 
  O    2.5340000    5.3350000    0.4130000 
  H    2.0710000    5.8330000    1.0870000 
  H    3.3270000    5.0230000    0.8490000 
  O   -0.4220000   -1.3360000   -3.1810000 
  H    0.2060000   -1.9880000   -2.8720000 
  H    0.1120000   -0.5700000   -3.3930000 
  O    6.2230000   -2.5580000   -1.4980000 
  H    5.7710000   -3.3870000   -1.3380000 
  H    5.7180000   -1.9110000   -1.0060000 
  O   -4.1620000    3.8140000    2.2100000 
  H   -4.9580000    3.3300000    2.4290000 
  H   -4.4340000    4.4260000    1.5260000 
  O   -3.6730000   -0.1240000    2.9020000 
  H   -3.6150000   -0.7390000    3.6330000 
  H   -3.2490000    0.6720000    3.2220000 
  O    3.2850000   -0.1860000   -2.7700000 
  H    2.7310000   -0.9520000   -2.9170000 
  H    3.4630000   -0.1950000   -1.8290000 
  O    2.0500000   -2.7010000   -3.1880000 
  H    2.2770000   -3.1870000   -3.9800000 
  H    2.3880000   -3.2370000   -2.4710000 
  O   -0.1780000    2.5920000    2.4650000 
  H    0.1520000    2.9620000    3.2850000 
  H    0.3990000    2.9520000    1.7910000 
  O    8.7710000   -1.8670000   -0.7090000 
  H    7.8260000   -2.0190000   -0.7180000 
  H    8.9290000   -1.2910000   -1.4570000 
