111 
   0.0000000000 
  O   -4.8870000   -1.5330000    0.0000000 
  C   -3.9630000   -0.7500000    0.0000000 
  N   -2.6280000   -1.0860000    0.0000000 
  C   -1.8410000   -0.0460000    0.0000000 
  S   -2.5990000    1.5730000    0.0000000 
  C   -4.2160000    0.7730000    0.0000000 
  C   -0.4290000   -0.1000000    0.0000000 
  S    0.4830000   -1.6180000    0.0000000 
  C    1.9690000   -0.6920000    0.0000000 
  C    3.2670000   -1.1300000    0.0000000 
  C    1.6220000    0.7010000    0.0000000 
  N    0.3190000    0.9860000    0.0000000 
  C    2.6720000    1.6620000    0.0000000 
  C    3.9620000    1.2460000    0.0000000 
  C    4.3510000   -0.1720000    0.0000000 
  O    5.5480000   -0.5080000    0.0000000 
  H   -4.7940000    1.0660000    0.8880000 
  H   -4.7930000    1.0340000   -0.8880000 
  H    3.5290000   -2.1820000    0.0000000 
  H    2.4040000    2.7140000    0.0000000 
  H    4.7790000    1.9610000    0.0000000 
  O    0.4210000    1.5730000   -3.8060000 
  H    1.2720000    1.1940000   -4.0270000 
  H    0.5550000    1.9820000   -2.9510000 
  O    7.1790000    0.9160000    1.6360000 
  H    6.8560000    0.7840000    2.5270000 
  H    6.4660000    0.6110000    1.0740000 
  O    3.9480000    1.3080000    2.9940000 
  H    3.8370000    1.2710000    2.0440000 
  H    3.8400000    0.4030000    3.2840000 
  O   -5.8190000    3.5900000   -1.4500000 
  H   -5.4790000    4.4840000   -1.4090000 
  H   -6.7380000    3.6710000   -1.1940000 
  O   -1.7890000    4.4180000   -1.4440000 
  H   -1.0950000    4.4200000   -2.1040000 
  H   -2.3680000    3.7030000   -1.7080000 
  O    2.7670000   -1.5660000    3.6130000 
  H    2.7080000   -2.1410000    2.8500000 
  H    2.1720000   -1.9570000    4.2540000 
  O    1.1200000    1.1260000    3.5580000 
  H    1.9070000    1.0300000    3.0220000 
  H    0.5380000    0.4290000    3.2550000 
  O   -3.3890000    1.3520000    3.3950000 
  H   -3.4950000    2.2920000    3.2510000 
  H   -4.2840000    1.0140000    3.4380000 
  O   -1.2690000   -0.5810000    2.9520000 
  H   -1.9540000    0.0340000    3.2120000 
  H   -1.7320000   -1.2680000    2.4730000 
  O   -3.6000000    2.8430000   -2.9000000 
  H   -4.4130000    3.1860000   -2.5310000 
  H   -3.5330000    3.2580000   -3.7600000 
  O    6.1570000   -3.5860000    0.5210000 
  H    5.8800000   -3.2740000   -0.3400000 
  H    6.3860000   -2.7900000    1.0020000 
  O   -5.9120000   -0.4240000    2.4860000 
  H   -6.7770000   -0.8210000    2.3820000 
  H   -5.4550000   -1.0000000    3.0990000 
  O    1.6140000    5.2370000    0.2950000 
  H    2.2220000    5.5640000    0.9580000 
  H    0.8090000    5.0490000    0.7780000 
  O    3.5470000   -5.2630000   -0.4350000 
  H    2.8390000   -5.0290000   -1.0350000 
  H    4.3200000   -5.3420000   -0.9950000 
  O   -2.5520000   -3.9140000    0.0790000 
  H   -2.8670000   -3.0130000    0.0030000 
  H   -1.7600000   -3.8460000    0.6120000 
  O    6.9840000    1.1660000   -1.5600000 
  H    6.2430000    0.7860000   -1.0890000 
  H    6.5880000    1.7940000   -2.1640000 
  O   -3.7880000    0.1550000   -3.4370000 
  H   -4.7150000   -0.0560000   -3.3290000 
  H   -3.7300000    1.0910000   -3.2430000 
  O    5.6410000   -2.3970000   -1.9100000 
  H    4.7900000   -2.3600000   -2.3470000 
  H    5.5660000   -1.7770000   -1.1850000 
  O    5.9660000   -1.7370000    2.4030000 
  H    5.6170000   -1.1340000    1.7460000 
  H    5.2080000   -2.2460000    2.6890000 
  O    2.6630000    0.2470000   -2.7610000 
  H    3.4870000    0.5430000   -3.1480000 
  H    2.8550000    0.1590000   -1.8270000 
  O   -7.3140000   -2.3560000   -0.5270000 
  H   -6.3940000   -2.6130000   -0.5780000 
  H   -7.3360000   -1.6740000    0.1450000 
  O   -8.1770000    0.3290000   -1.2670000 
  H   -8.8610000    0.5270000   -1.9060000 
  H   -7.4860000   -0.0930000   -1.7790000 
  O    3.7900000    3.8980000   -1.8910000 
  H    3.9390000    4.4830000   -1.1480000 
  H    3.5030000    3.0750000   -1.4950000 
  O   -1.6960000   -2.9500000   -2.6690000 
  H   -2.1290000   -3.7320000   -3.0110000 
  H   -1.7730000   -3.0290000   -1.7180000 
  O    3.3100000   -2.2600000   -3.5550000 
  H    2.6220000   -2.9130000   -3.6830000 
  H    2.8640000   -1.5200000   -3.1430000 
  O   -6.3900000    3.0880000    3.0130000 
  H   -7.1700000    3.6380000    2.9470000 
  H   -6.6810000    2.2230000    2.7260000 
  O    7.6980000    4.2060000   -0.1690000 
  H    8.4180000    3.7950000   -0.6480000 
  H    7.4350000    3.5520000    0.4780000 
  O    4.6650000    3.7760000    2.9270000 
  H    4.7360000    2.8210000    2.9190000 
  H    3.7560000    3.9480000    3.1740000 
  O    2.6070000   -3.8090000    1.7910000 
  H    3.0300000   -4.1800000    1.0170000 
  H    1.7960000   -4.3090000    1.8840000 
  O   -6.5380000   -1.4070000   -3.2460000 
  H   -6.1990000   -2.0100000   -2.5850000 
  H   -7.3980000   -1.7600000   -3.4750000 
