111 
   0.0000000000 
  O   -4.8870000   -1.5330000    0.0000000 
  C   -3.9630000   -0.7500000    0.0000000 
  N   -2.6280000   -1.0860000    0.0000000 
  C   -1.8410000   -0.0460000    0.0000000 
  S   -2.5990000    1.5730000    0.0000000 
  C   -4.2160000    0.7730000    0.0000000 
  C   -0.4290000   -0.1000000    0.0000000 
  S    0.4830000   -1.6180000    0.0000000 
  C    1.9690000   -0.6920000    0.0000000 
  C    3.2670000   -1.1300000    0.0000000 
  C    1.6220000    0.7010000    0.0000000 
  N    0.3190000    0.9860000    0.0000000 
  C    2.6720000    1.6620000    0.0000000 
  C    3.9620000    1.2460000    0.0000000 
  C    4.3510000   -0.1720000    0.0000000 
  O    5.5480000   -0.5080000    0.0000000 
  H   -4.7940000    1.0660000    0.8880000 
  H   -4.7930000    1.0340000   -0.8880000 
  H    3.5290000   -2.1820000    0.0000000 
  H    2.4040000    2.7140000    0.0000000 
  H    4.7790000    1.9610000    0.0000000 
  O    2.1480000    5.7500000    0.2460000 
  H    2.2110000    6.2480000    1.0610000 
  H    3.0500000    5.6900000   -0.0690000 
  O   -3.9200000   -0.5530000    3.2330000 
  H   -3.5060000   -0.4070000    4.0840000 
  H   -3.5640000   -1.3900000    2.9340000 
  O    1.5690000   -4.0340000    2.1490000 
  H    1.9590000   -3.6980000    2.9560000 
  H    1.4380000   -3.2580000    1.6040000 
  O    7.8490000   -1.4970000    1.0390000 
  H    7.9680000   -1.9750000    0.2180000 
  H    7.0150000   -1.0390000    0.9320000 
  O    1.5400000    4.3300000    2.8930000 
  H    1.3380000    4.8520000    2.1160000 
  H    2.3920000    3.9370000    2.7030000 
  O    8.4590000   -2.4850000   -1.6950000 
  H    7.5510000   -2.1820000   -1.6880000 
  H    8.9540000   -1.7520000   -2.0610000 
  O   -7.1710000   -3.3250000   -0.0400000 
  H   -6.6540000   -2.5480000   -0.2530000 
  H   -7.8920000   -2.9930000    0.4940000 
  O    5.6580000   -2.7400000   -1.2330000 
  H    5.4750000   -3.4670000   -0.6390000 
  H    5.5990000   -1.9590000   -0.6820000 
  O   -4.7650000    3.5360000    2.9100000 
  H   -4.4940000    3.8650000    2.0530000 
  H   -5.1160000    4.3040000    3.3610000 
  O    3.4210000   -0.2740000    2.9510000 
  H    2.8280000    0.3440000    2.5240000 
  H    3.9800000   -0.5980000    2.2440000 
  O   -5.5770000   -2.5990000   -3.0330000 
  H   -5.5750000   -1.6440000   -3.0920000 
  H   -6.5040000   -2.8370000   -3.0170000 
  O    0.2240000    5.1690000   -1.4090000 
  H   -0.5560000    5.1290000   -0.8560000 
  H    0.9350000    5.3820000   -0.8050000 
  O    0.8940000   -5.1180000   -0.9470000 
  H    1.1460000   -4.4810000   -1.6160000 
  H    1.1850000   -4.7280000   -0.1230000 
  O   -7.8790000    0.6780000    0.6080000 
  H   -7.2610000    0.0470000    0.9750000 
  H   -8.7090000    0.2030000    0.5640000 
  O    0.2660000   -2.1740000   -3.5550000 
  H    1.0880000   -2.1610000   -3.0650000 
  H    0.5290000   -2.3460000   -4.4590000 
  O    7.4970000    1.5150000    2.1860000 
  H    6.6430000    1.2510000    1.8440000 
  H    7.8560000    2.0940000    1.5140000 
  O    2.8960000   -0.8670000   -2.8540000 
  H    3.0760000   -0.9460000   -1.9170000 
  H    3.2780000   -0.0250000   -3.1020000 
  O    5.2860000    4.3450000    0.7190000 
  H    6.2030000    4.0930000    0.6140000 
  H    5.2640000    5.2740000    0.4890000 
  O   -3.0810000   -4.0970000   -0.3120000 
  H   -3.1950000   -3.1860000   -0.0430000 
  H   -2.6120000   -4.0460000   -1.1440000 
  O    6.1650000    0.7020000   -2.5020000 
  H    6.0600000    0.1180000   -1.7510000 
  H    5.3460000    1.1960000   -2.5380000 
  O    7.3730000    2.6050000   -0.5190000 
  H    7.3370000    1.7000000   -0.8290000 
  H    7.1500000    3.1310000   -1.2860000 
  O    3.9330000    2.1430000   -2.6660000 
  H    3.6620000    3.0340000   -2.8870000 
  H    3.5420000    1.9790000   -1.8080000 
  O   -3.7860000    0.0280000   -3.3440000 
  H   -3.5350000    0.9490000   -3.2650000 
  H   -3.0460000   -0.3850000   -3.7880000 
  O    2.7940000   -3.7480000   -2.4330000 
  H    3.5580000   -3.8460000   -1.8650000 
  H    2.9080000   -2.8900000   -2.8410000 
  O    4.7740000   -4.2790000    0.9620000 
  H    4.6370000   -4.2740000    1.9090000 
  H    4.6700000   -5.1960000    0.7090000 
  O   -6.5060000   -0.9090000    2.3570000 
  H   -6.9300000   -1.6380000    2.8080000 
  H   -5.7540000   -0.6900000    2.9070000 
  O    3.8220000    2.8830000    2.4340000 
  H    4.3930000    3.4350000    1.9010000 
  H    3.7900000    2.0480000    1.9660000 
  O    2.7770000    4.5170000   -3.0210000 
  H    1.9590000    4.3210000   -2.5630000 
  H    2.5180000    5.0980000   -3.7360000 
  O   -7.6460000    0.4530000   -2.2790000 
  H   -8.5480000    0.4940000   -2.5970000 
  H   -7.6260000    1.0560000   -1.5350000 
  O   -1.9600000   -2.6540000    2.3520000 
  H   -1.1600000   -2.1450000    2.4870000 
  H   -2.2030000   -2.4820000    1.4420000 
