111 
   0.0000000000 
  O   -4.8870000   -1.5330000    0.0000000 
  C   -3.9630000   -0.7500000    0.0000000 
  N   -2.6280000   -1.0860000    0.0000000 
  C   -1.8410000   -0.0460000    0.0000000 
  S   -2.5990000    1.5730000    0.0000000 
  C   -4.2160000    0.7730000    0.0000000 
  C   -0.4290000   -0.1000000    0.0000000 
  S    0.4830000   -1.6180000    0.0000000 
  C    1.9690000   -0.6920000    0.0000000 
  C    3.2670000   -1.1300000    0.0000000 
  C    1.6220000    0.7010000    0.0000000 
  N    0.3190000    0.9860000    0.0000000 
  C    2.6720000    1.6620000    0.0000000 
  C    3.9620000    1.2460000    0.0000000 
  C    4.3510000   -0.1720000    0.0000000 
  O    5.5480000   -0.5080000    0.0000000 
  H   -4.7940000    1.0660000    0.8880000 
  H   -4.7930000    1.0340000   -0.8880000 
  H    3.5290000   -2.1820000    0.0000000 
  H    2.4040000    2.7140000    0.0000000 
  H    4.7790000    1.9610000    0.0000000 
  O   -7.2190000   -1.0130000    2.6210000 
  H   -7.9050000   -0.7250000    2.0190000 
  H   -6.5790000   -0.3010000    2.6150000 
  O    3.2000000   -0.1380000    2.6740000 
  H    3.0170000   -0.0590000    1.7380000 
  H    2.3660000    0.0610000    3.0990000 
  O    6.2280000   -2.2320000   -2.1160000 
  H    6.1060000   -1.5740000   -2.8000000 
  H    5.9260000   -1.8050000   -1.3150000 
  O   -6.0110000    1.4820000    2.8160000 
  H   -5.4600000    2.2390000    2.6180000 
  H   -6.9070000    1.8110000    2.7400000 
  O    3.9340000    2.1780000   -2.6770000 
  H    3.5990000    1.9780000   -1.8030000 
  H    3.1510000    2.2560000   -3.2220000 
  O   -7.4460000   -3.3370000    0.3480000 
  H   -7.2720000   -2.8440000   -0.4540000 
  H   -6.5780000   -3.5610000    0.6850000 
  O    2.8930000   -1.7930000   -2.6900000 
  H    2.9800000   -1.5000000   -1.7830000 
  H    3.6840000   -1.4730000   -3.1230000 
  O   -6.4060000   -2.8400000   -2.2490000 
  H   -5.6530000   -2.3580000   -1.9070000 
  H   -6.1460000   -3.7600000   -2.1980000 
  O    7.8410000    0.7770000   -0.3200000 
  H    7.0270000    0.3080000   -0.1320000 
  H    8.4660000    0.0900000   -0.5520000 
  O    5.4730000    4.8860000   -1.6660000 
  H    6.3550000    5.0390000   -1.3290000 
  H    5.5810000    4.1870000   -2.3110000 
  O   -4.8300000   -0.2450000   -3.7390000 
  H   -5.1780000    0.6150000   -3.5030000 
  H   -4.1020000   -0.0550000   -4.3300000 
  O   -4.9250000   -4.2010000    1.0610000 
  H   -4.4130000   -4.2480000    1.8680000 
  H   -4.2810000   -4.0150000    0.3780000 
  O    0.5840000    5.7020000    2.3080000 
  H    0.5910000    6.4280000    1.6840000 
  H    1.2480000    5.0960000    1.9800000 
  O    3.7120000    2.8080000    2.5590000 
  H    3.2010000    3.4910000    2.1250000 
  H    3.6730000    2.0620000    1.9610000 
  O    0.8360000   -3.4450000   -2.9400000 
  H    1.5380000   -2.8780000   -2.6190000 
  H    0.0400000   -2.9240000   -2.8360000 
  O   -3.1040000   -3.7620000   -1.1570000 
  H   -3.1260000   -2.8150000   -1.0190000 
  H   -3.1060000   -3.8660000   -2.1090000 
  O   -4.6250000    2.7990000   -3.0680000 
  H   -5.0200000    3.3630000   -3.7320000 
  H   -5.0450000    3.0610000   -2.2490000 
  O    1.6140000   -2.6600000    3.1270000 
  H    2.3590000   -3.1220000    2.7450000 
  H    0.9060000   -2.7810000    2.4940000 
  O    6.6070000    2.2970000   -2.3870000 
  H    5.7000000    2.0760000   -2.6010000 
  H    6.7950000    1.7960000   -1.5930000 
  O    7.1060000    2.8580000    1.9110000 
  H    7.6360000    2.3770000    1.2750000 
  H    6.3860000    2.2630000    2.1200000 
  O    4.2400000   -3.6230000    2.0420000 
  H    4.7400000   -4.0930000    1.3750000 
  H    4.5690000   -2.7250000    2.0010000 
  O   -5.6000000    3.9890000   -0.5900000 
  H   -5.8960000    4.8330000   -0.9310000 
  H   -5.0160000    4.2140000    0.1340000 
  O    0.5140000   -0.0540000   -3.4040000 
  H    0.6250000    0.8740000   -3.1960000 
  H    1.2990000   -0.4740000   -3.0540000 
  O    3.1290000    5.2070000    0.9210000 
  H    3.7220000    5.3750000    1.6540000 
  H    3.6370000    5.4410000    0.1440000 
  O    0.8430000    2.5850000   -3.1310000 
  H    0.6270000    3.3120000   -2.5470000 
  H    0.5890000    2.8920000   -4.0010000 
  O    5.8800000    0.4710000    2.6150000 
  H    5.7400000    0.1550000    1.7230000 
  H    5.0010000    0.6460000    2.9500000 
  O   -3.8020000   -0.9480000    3.5260000 
  H   -4.0150000   -1.5680000    2.8290000 
  H   -3.2470000   -1.4440000    4.1280000 
  O    7.2010000   -2.2860000    1.0630000 
  H    6.5780000   -1.6600000    0.6940000 
  H    7.4810000   -2.8150000    0.3160000 
  O   -4.8020000    3.9320000    2.4270000 
  H   -5.3600000    4.6520000    2.7210000 
  H   -4.0160000    4.3610000    2.0880000 
  O   -1.6230000    0.5510000    3.0080000 
  H   -2.4470000    0.1100000    3.2160000 
  H   -0.9610000    0.0640000    3.4980000 
