111 
   0.0000000000 
  O   -4.8870000   -1.5330000    0.0000000 
  C   -3.9630000   -0.7500000    0.0000000 
  N   -2.6280000   -1.0860000    0.0000000 
  C   -1.8410000   -0.0460000    0.0000000 
  S   -2.5990000    1.5730000    0.0000000 
  C   -4.2160000    0.7730000    0.0000000 
  C   -0.4290000   -0.1000000    0.0000000 
  S    0.4830000   -1.6180000    0.0000000 
  C    1.9690000   -0.6920000    0.0000000 
  C    3.2670000   -1.1300000    0.0000000 
  C    1.6220000    0.7010000    0.0000000 
  N    0.3190000    0.9860000    0.0000000 
  C    2.6720000    1.6620000    0.0000000 
  C    3.9620000    1.2460000    0.0000000 
  C    4.3510000   -0.1720000    0.0000000 
  O    5.5480000   -0.5080000    0.0000000 
  H   -4.7940000    1.0660000    0.8880000 
  H   -4.7930000    1.0340000   -0.8880000 
  H    3.5290000   -2.1820000    0.0000000 
  H    2.4040000    2.7140000    0.0000000 
  H    4.7790000    1.9610000    0.0000000 
  O    2.3770000    2.7460000    2.9980000 
  H    3.2130000    3.2000000    2.8940000 
  H    1.8130000    3.1220000    2.3220000 
  O   -4.9170000    3.2490000   -3.0880000 
  H   -4.5590000    3.9340000   -2.5230000 
  H   -5.5400000    3.7060000   -3.6530000 
  O   -6.6900000   -3.3880000    0.5900000 
  H   -6.0500000   -2.6870000    0.4660000 
  H   -7.1650000   -3.4290000   -0.2410000 
  O    8.0040000   -0.9450000   -3.0030000 
  H    7.3610000   -0.2980000   -2.7130000 
  H    7.5010000   -1.7520000   -3.1120000 
  O    5.2700000    2.8020000    2.6730000 
  H    5.8580000    3.4900000    2.3610000 
  H    5.7240000    1.9860000    2.4640000 
  O   -4.9690000    3.5450000    2.4610000 
  H   -4.8620000    3.0960000    3.2990000 
  H   -4.2700000    4.1990000    2.4490000 
  O    2.7410000   -0.8550000   -2.8830000 
  H    1.9590000   -1.3790000   -2.7090000 
  H    3.3060000   -1.0080000   -2.1260000 
  O   -3.3100000   -2.5930000    2.8790000 
  H   -2.5800000   -2.3100000    3.4290000 
  H   -4.0250000   -1.9990000    3.1050000 
  O    2.2350000   -2.6650000    2.3050000 
  H    2.8380000   -2.0130000    2.6620000 
  H    1.8390000   -2.2370000    1.5460000 
  O    3.1340000   -4.9570000   -1.4830000 
  H    2.8500000   -4.7230000   -0.5990000 
  H    3.6270000   -5.7700000   -1.3690000 
  O   -6.3810000    0.7110000   -2.9870000 
  H   -5.6490000    1.3260000   -2.9530000 
  H   -6.8890000    0.8990000   -2.1980000 
  O   -2.8770000    1.3910000   -3.8890000 
  H   -3.6420000    0.8300000   -3.7630000 
  H   -3.2350000    2.2780000   -3.9310000 
  O   -0.1020000    4.3770000   -1.7970000 
  H    0.1330000    3.5870000   -2.2830000 
  H    0.6580000    4.5540000   -1.2430000 
  O    3.5500000    2.2500000   -2.6950000 
  H    3.5450000    1.8980000   -1.8050000 
  H    2.8280000    1.8020000   -3.1350000 
  O   -6.4270000    4.4110000    0.0840000 
  H   -5.6230000    4.7860000   -0.2760000 
  H   -6.1260000    3.7940000    0.7510000 
  O   -0.6260000   -4.5140000   -1.6200000 
  H   -0.6540000   -5.2980000   -1.0720000 
  H   -1.3010000   -3.9420000   -1.2550000 
  O    2.8580000    0.1120000    2.9480000 
  H    2.6590000    1.0160000    3.1900000 
  H    3.0860000    0.1570000    2.0200000 
  O    5.7330000   -2.1070000   -2.1890000 
  H    5.4670000   -1.6530000   -1.3900000 
  H    6.0260000   -2.9680000   -1.8900000 
  O   -3.0330000   -3.9110000   -0.2550000 
  H   -3.0380000   -2.9530000   -0.2660000 
  H   -2.4940000   -4.1390000    0.5020000 
  O   -4.6190000   -1.2220000   -3.7650000 
  H   -5.3870000   -0.6800000   -3.5810000 
  H   -4.9530000   -1.9370000   -4.3060000 
  O    2.7710000   -5.1430000    1.4870000 
  H    3.3160000   -5.5240000    2.1760000 
  H    2.5240000   -4.2820000    1.8240000 
  O    5.9330000    1.1600000   -2.4460000 
  H    5.2980000    1.8550000   -2.6170000 
  H    5.5310000    0.6310000   -1.7570000 
  O    1.6510000    5.4660000    1.7890000 
  H    2.0590000    5.2660000    0.9470000 
  H    1.1190000    6.2430000    1.6200000 
  O    7.2990000   -2.2390000    1.0080000 
  H    7.1160000   -2.8390000    0.2850000 
  H    6.6220000   -1.5660000    0.9390000 
  O   -8.0280000   -0.0840000    1.2350000 
  H   -7.4860000    0.3830000    1.8700000 
  H   -8.8400000    0.4220000    1.1930000 
  O   -5.0500000   -0.3390000    4.0950000 
  H   -5.6580000    0.3330000    3.7870000 
  H   -5.5860000   -0.9150000    4.6410000 
  O    2.3650000    5.1550000   -1.0630000 
  H    2.6310000    5.9610000   -0.6210000 
  H    2.6460000    5.2740000   -1.9700000 
  O    8.2570000    0.5490000   -0.3400000 
  H    8.3670000    0.7270000   -1.2740000 
  H    7.4730000    0.0020000   -0.2910000 
  O   -7.8410000    2.1700000   -1.0000000 
  H   -8.3600000    2.6990000   -1.6050000 
  H   -7.5800000    2.7800000   -0.3100000 
  O    6.0200000   -0.4540000    2.8860000 
  H    5.6520000   -0.4690000    2.0030000 
  H    6.9200000   -0.1510000    2.7660000 
