111 
   0.0000000000 
  O   -4.8870000   -1.5330000    0.0000000 
  C   -3.9630000   -0.7500000    0.0000000 
  N   -2.6280000   -1.0860000    0.0000000 
  C   -1.8410000   -0.0460000    0.0000000 
  S   -2.5990000    1.5730000    0.0000000 
  C   -4.2160000    0.7730000    0.0000000 
  C   -0.4290000   -0.1000000    0.0000000 
  S    0.4830000   -1.6180000    0.0000000 
  C    1.9690000   -0.6920000    0.0000000 
  C    3.2670000   -1.1300000    0.0000000 
  C    1.6220000    0.7010000    0.0000000 
  N    0.3190000    0.9860000    0.0000000 
  C    2.6720000    1.6620000    0.0000000 
  C    3.9620000    1.2460000    0.0000000 
  C    4.3510000   -0.1720000    0.0000000 
  O    5.5480000   -0.5080000    0.0000000 
  H   -4.7940000    1.0660000    0.8880000 
  H   -4.7930000    1.0340000   -0.8880000 
  H    3.5290000   -2.1820000    0.0000000 
  H    2.4040000    2.7140000    0.0000000 
  H    4.7790000    1.9610000    0.0000000 
  O   -0.3370000    4.2160000    1.0710000 
  H   -0.7980000    5.0520000    1.1400000 
  H   -0.5200000    3.7720000    1.8980000 
  O    5.9390000   -2.2340000    1.9650000 
  H    6.6750000   -1.6490000    2.1450000 
  H    5.3790000   -1.7390000    1.3680000 
  O   -7.0000000   -1.5970000    1.8000000 
  H   -6.4130000   -1.1330000    2.3960000 
  H   -6.4250000   -1.9430000    1.1180000 
  O   -5.2520000   -0.4530000    3.4400000 
  H   -5.1040000    0.4850000    3.5570000 
  H   -5.0500000   -0.8360000    4.2930000 
  O   -7.5660000    3.1840000    2.1590000 
  H   -7.3140000    2.4820000    2.7590000 
  H   -8.3930000    2.8900000    1.7780000 
  O   -6.6530000   -2.6630000   -1.7400000 
  H   -5.9960000   -3.0770000   -1.1810000 
  H   -6.6920000   -1.7570000   -1.4350000 
  O    3.6010000   -4.0240000    2.1710000 
  H    2.8600000   -3.8180000    2.7400000 
  H    4.1730000   -3.2590000    2.2350000 
  O   -7.6300000   -0.0470000   -1.2200000 
  H   -8.3770000   -0.4760000   -1.6390000 
  H   -7.3600000    0.6270000   -1.8440000 
  O    1.6560000    3.2460000   -3.8500000 
  H    1.2910000    3.8020000   -3.1620000 
  H    1.9450000    2.4570000   -3.3930000 
  O    3.3490000   -4.3450000   -1.6580000 
  H    3.8710000   -4.3810000   -0.8560000 
  H    3.8230000   -3.7360000   -2.2250000 
  O   -2.1760000    1.2460000    3.0780000 
  H   -2.8740000    1.8940000    3.1750000 
  H   -1.3660000    1.7500000    3.1640000 
  O   -2.1110000   -2.2510000   -2.3660000 
  H   -2.0900000   -1.8350000   -1.5050000 
  H   -2.7220000   -1.7180000   -2.8750000 
  O    0.6810000    0.2840000   -3.5330000 
  H    0.8330000    0.4350000   -4.4660000 
  H   -0.2230000    0.5640000   -3.3890000 
  O    5.1600000    4.7240000    1.6940000 
  H    5.2470000    4.0840000    2.4000000 
  H    4.2390000    4.6770000    1.4390000 
  O   -0.0810000    4.2030000   -1.8590000 
  H   -0.1320000    3.6790000   -1.0590000 
  H   -0.1430000    5.1090000   -1.5560000 
  O   -5.7600000    3.4660000    0.2420000 
  H   -6.2070000    3.5380000    1.0850000 
  H   -6.4210000    3.1090000   -0.3500000 
  O    5.7020000    3.2990000   -2.0900000 
  H    5.2920000    4.1310000   -1.8530000 
  H    6.6420000    3.4670000   -2.0210000 
  O    7.1360000    1.0090000   -1.4610000 
  H    6.4760000    0.4960000   -0.9940000 
  H    6.6840000    1.8160000   -1.7060000 
  O    3.8580000    1.0520000   -2.7540000 
  H    4.4390000    1.7970000   -2.5980000 
  H    3.7990000    0.6120000   -1.9060000 
  O    6.7640000    1.3610000    1.8710000 
  H    6.5060000    0.7010000    1.2270000 
  H    5.9520000    1.8250000    2.0770000 
  O    7.3160000   -2.7180000   -1.0000000 
  H    6.8330000   -2.0770000   -0.4780000 
  H    8.2170000   -2.6570000   -0.6800000 
  O    2.6140000   -0.7170000    2.9940000 
  H    2.7170000   -0.5440000    2.0580000 
  H    1.9530000   -1.4080000    3.0390000 
  O   -3.0220000   -3.4910000    1.7920000 
  H   -2.9630000   -3.1860000    0.8870000 
  H   -2.8210000   -4.4260000    1.7440000 
  O    0.8240000   -5.2590000    1.2000000 
  H    1.0490000   -4.9460000    0.3230000 
  H    0.5870000   -4.4670000    1.6830000 
  O    4.8180000   -2.1780000   -2.1410000 
  H    5.6210000   -2.6650000   -1.9560000 
  H    4.7670000   -1.5270000   -1.4410000 
  O    5.2660000   -5.3370000   -0.1250000 
  H    5.0780000   -5.0560000    0.7710000 
  H    5.1430000   -6.2860000   -0.1090000 
  O    2.4300000    5.4220000    1.3330000 
  H    2.1900000    6.0940000    0.6950000 
  H    1.7400000    4.7630000    1.2580000 
  O   -1.9850000    0.9560000   -3.6170000 
  H   -2.7040000    0.3290000   -3.5350000 
  H   -2.3810000    1.7230000   -4.0310000 
  O    1.9360000   -2.2720000   -3.4330000 
  H    2.8300000   -1.9360000   -3.5000000 
  H    1.3940000   -1.4910000   -3.3210000 
  O   -4.8510000    2.1050000    3.7340000 
  H   -5.3630000    2.6080000    4.3680000 
  H   -4.3790000    2.7660000    3.2280000 
