111 
   0.0000000000 
  O   -4.8870000   -1.5330000    0.0000000 
  C   -3.9630000   -0.7500000    0.0000000 
  N   -2.6280000   -1.0860000    0.0000000 
  C   -1.8410000   -0.0460000    0.0000000 
  S   -2.5990000    1.5730000    0.0000000 
  C   -4.2160000    0.7730000    0.0000000 
  C   -0.4290000   -0.1000000    0.0000000 
  S    0.4830000   -1.6180000    0.0000000 
  C    1.9690000   -0.6920000    0.0000000 
  C    3.2670000   -1.1300000    0.0000000 
  C    1.6220000    0.7010000    0.0000000 
  N    0.3190000    0.9860000    0.0000000 
  C    2.6720000    1.6620000    0.0000000 
  C    3.9620000    1.2460000    0.0000000 
  C    4.3510000   -0.1720000    0.0000000 
  O    5.5480000   -0.5080000    0.0000000 
  H   -4.7940000    1.0660000    0.8880000 
  H   -4.7930000    1.0340000   -0.8880000 
  H    3.5290000   -2.1820000    0.0000000 
  H    2.4040000    2.7140000    0.0000000 
  H    4.7790000    1.9610000    0.0000000 
  O   -6.0010000    3.5430000   -0.7910000 
  H   -5.2370000    3.6390000   -0.2240000 
  H   -6.7380000    3.4480000   -0.1870000 
  O    0.4550000    0.8650000    3.6040000 
  H    0.6170000    0.1240000    4.1870000 
  H    1.2950000    1.0170000    3.1700000 
  O   -0.3690000    4.2680000   -0.6770000 
  H   -0.7500000    5.0970000   -0.9680000 
  H   -0.7630000    4.1120000    0.1810000 
  O   -4.9780000   -3.4720000   -3.0250000 
  H   -4.9850000   -4.3620000   -2.6720000 
  H   -4.9980000   -2.9080000   -2.2520000 
  O    0.1340000   -5.1360000   -0.6030000 
  H    0.0060000   -5.9580000   -1.0770000 
  H   -0.6000000   -4.5850000   -0.8750000 
  O    7.5350000    3.0130000   -1.0540000 
  H    8.4270000    3.3220000   -0.8980000 
  H    7.0620000    3.2280000   -0.2500000 
  O    2.6490000   -5.0990000    0.5210000 
  H    2.4680000   -5.8430000    1.0950000 
  H    1.7990000   -4.8770000    0.1400000 
  O   -2.4230000   -3.7900000   -0.5520000 
  H   -2.3340000   -2.8620000   -0.3350000 
  H   -2.9130000   -4.1620000    0.1810000 
  O   -0.6210000    3.3450000    2.0340000 
  H   -0.3430000    2.4300000    2.0620000 
  H   -1.2820000    3.4150000    2.7230000 
  O    6.1340000    0.3030000    2.5510000 
  H    6.9270000   -0.2290000    2.4890000 
  H    5.7750000    0.3020000    1.6640000 
  O    3.5930000    4.3930000   -3.2380000 
  H    4.3730000    3.8400000   -3.2740000 
  H    3.4470000    4.5420000   -2.3040000 
  O    8.1800000    0.0220000    0.2770000 
  H    7.2520000   -0.2150000    0.2860000 
  H    8.2260000    0.7890000   -0.2940000 
  O    3.0960000    1.2740000    2.9700000 
  H    3.1610000    2.1980000    2.7300000 
  H    3.5460000    0.8110000    2.2640000 
  O   -7.1750000   -2.9620000   -0.4990000 
  H   -6.6500000   -3.6680000   -0.1220000 
  H   -6.5880000   -2.2060000   -0.5070000 
  O    4.3840000    6.0700000    1.1440000 
  H    4.1500000    6.9970000    1.2080000 
  H    3.7410000    5.7020000    0.5370000 
  O    2.1910000    5.2730000   -0.2810000 
  H    1.4870000    4.8120000   -0.7390000 
  H    1.8120000    5.5090000    0.5660000 
  O    5.6730000   -2.3060000   -2.0390000 
  H    5.7030000   -1.6820000   -1.3140000 
  H    5.3180000   -3.1060000   -1.6520000 
  O    3.3810000   -2.2700000    2.8540000 
  H    3.4770000   -1.8370000    2.0060000 
  H    4.0470000   -2.9570000    2.8500000 
  O    2.2290000   -2.4800000   -2.6500000 
  H    2.1990000   -1.8250000   -1.9530000 
  H    2.7060000   -3.2160000   -2.2670000 
  O   -3.2620000    1.3250000   -3.7590000 
  H   -3.6740000    0.4640000   -3.6860000 
  H   -2.3640000    1.1870000   -3.4570000 
  O   -7.0000000   -2.0180000    3.0930000 
  H   -6.6620000   -1.3840000    2.4590000 
  H   -7.6530000   -1.5300000    3.5950000 
  O   -4.8510000   -0.1790000    3.0850000 
  H   -5.0700000    0.5110000    3.7100000 
  H   -4.0100000   -0.5200000    3.3880000 
  O    3.9990000   -4.3990000   -1.7760000 
  H    3.6770000   -4.6520000   -0.9110000 
  H    4.1520000   -5.2300000   -2.2270000 
  O   -2.0350000   -2.3800000   -3.1260000 
  H   -2.2370000   -2.7440000   -2.2640000 
  H   -2.6290000   -2.8340000   -3.7240000 
  O   -4.5660000    3.9040000    1.4430000 
  H   -4.0870000    4.3060000    2.1680000 
  H   -5.3310000    3.5030000    1.8550000 
  O    5.8190000   -3.2720000    1.7070000 
  H    5.6590000   -2.4480000    1.2480000 
  H    6.7370000   -3.2240000    1.9750000 
  O    6.1710000    4.0710000    1.0350000 
  H    5.2860000    4.4060000    1.1830000 
  H    6.5770000    4.0730000    1.9010000 
  O    5.6470000    2.3810000   -3.0330000 
  H    5.9020000    2.9630000   -2.3180000 
  H    5.5500000    1.5220000   -2.6220000 
  O   -5.3140000   -0.7520000   -3.0710000 
  H   -6.0050000   -0.0980000   -3.1800000 
  H   -5.5570000   -1.4600000   -3.6680000 
  O    2.8580000    1.1700000   -2.8890000 
  H    2.9990000    1.1050000   -1.9440000 
  H    2.4990000    2.0480000   -3.0180000 
