111 
   0.0000000000 
  O   -4.8870000   -1.5330000    0.0000000 
  C   -3.9630000   -0.7500000    0.0000000 
  N   -2.6280000   -1.0860000    0.0000000 
  C   -1.8410000   -0.0460000    0.0000000 
  S   -2.5990000    1.5730000    0.0000000 
  C   -4.2160000    0.7730000    0.0000000 
  C   -0.4290000   -0.1000000    0.0000000 
  S    0.4830000   -1.6180000    0.0000000 
  C    1.9690000   -0.6920000    0.0000000 
  C    3.2670000   -1.1300000    0.0000000 
  C    1.6220000    0.7010000    0.0000000 
  N    0.3190000    0.9860000    0.0000000 
  C    2.6720000    1.6620000    0.0000000 
  C    3.9620000    1.2460000    0.0000000 
  C    4.3510000   -0.1720000    0.0000000 
  O    5.5480000   -0.5080000    0.0000000 
  H   -4.7940000    1.0660000    0.8880000 
  H   -4.7930000    1.0340000   -0.8880000 
  H    3.5290000   -2.1820000    0.0000000 
  H    2.4040000    2.7140000    0.0000000 
  H    4.7790000    1.9610000    0.0000000 
  O    6.2610000   -0.0290000    2.4430000 
  H    5.8150000   -0.2440000    1.6240000 
  H    7.0200000    0.4880000    2.1750000 
  O   -1.5240000   -2.3280000    3.2880000 
  H   -0.9540000   -1.5910000    3.5050000 
  H   -2.3620000   -1.9250000    3.0600000 
  O   -0.1460000    0.2080000    3.1350000 
  H    0.7740000   -0.0240000    3.0060000 
  H   -0.1210000    0.9980000    3.6750000 
  O    2.0860000   -2.2520000   -3.0720000 
  H    2.1460000   -2.4370000   -2.1350000 
  H    2.3440000   -1.3340000   -3.1520000 
  O   -3.7750000   -0.3380000   -3.4710000 
  H   -4.3370000    0.2190000   -4.0100000 
  H   -2.8880000   -0.0190000   -3.6390000 
  O    6.1240000    4.3090000   -1.4400000 
  H    6.5230000    5.0530000   -1.8900000 
  H    5.5480000    3.9130000   -2.0940000 
  O    4.7780000   -2.4540000    3.3800000 
  H    4.2320000   -3.1540000    3.0250000 
  H    5.4280000   -2.2860000    2.6980000 
  O    7.2480000    4.2370000    1.0930000 
  H    6.7610000    4.1260000    0.2770000 
  H    7.0250000    5.1210000    1.3870000 
  O   -3.8250000    2.0760000    3.2120000 
  H   -3.1800000    2.7810000    3.1590000 
  H   -4.6640000    2.5060000    3.0480000 
  O    1.7570000    2.5740000   -3.0310000 
  H    1.5590000    3.3730000   -2.5420000 
  H    1.4390000    2.7480000   -3.9160000 
  O   -2.0540000   -3.7810000    0.7800000 
  H   -2.4510000   -2.9260000    0.6120000 
  H   -1.5550000   -3.6590000    1.5880000 
  O    2.8300000    2.6650000    2.7720000 
  H    2.6430000    1.8940000    2.2370000 
  H    3.7860000    2.7260000    2.7800000 
  O    5.5360000    2.9630000    3.1620000 
  H    6.0620000    2.1850000    3.3450000 
  H    6.0290000    3.4340000    2.4900000 
  O   -4.1530000    4.8830000    0.8890000 
  H   -4.5320000    4.0040000    0.9150000 
  H   -3.8560000    5.0430000    1.7840000 
  O    3.5570000    0.6200000   -2.8450000 
  H    3.7010000    0.6130000   -1.8980000 
  H    2.7370000    1.0990000   -2.9600000 
  O   -6.2560000    3.4880000    2.3690000 
  H   -6.5690000    3.2400000    1.4990000 
  H   -6.8560000    4.1790000    2.6520000 
  O   -7.1560000    3.0870000   -0.3020000 
  H   -7.3160000    3.0280000   -1.2440000 
  H   -8.0200000    2.9740000    0.0950000 
  O   -1.3870000    3.6080000   -2.5780000 
  H   -1.3470000    3.9090000   -3.4860000 
  H   -1.5880000    2.6740000   -2.6440000 
  O    2.6010000   -0.4550000    2.6300000 
  H    2.7890000   -0.4560000    1.6910000 
  H    3.4520000   -0.5940000    3.0450000 
  O    6.9970000   -2.6630000    0.3560000 
  H    6.8300000   -3.1230000   -0.4660000 
  H    6.5070000   -1.8440000    0.2770000 
  O   -3.8930000   -0.5900000    3.2900000 
  H   -4.7650000   -0.6310000    2.8980000 
  H   -3.6840000    0.3440000    3.3120000 
  O    6.6390000    1.4510000   -1.5450000 
  H    5.8800000    1.7530000   -2.0450000 
  H    6.3560000    0.6240000   -1.1550000 
  O   -6.9860000   -0.1100000   -2.0140000 
  H   -6.3950000   -0.6890000   -2.4950000 
  H   -7.4030000   -0.6770000   -1.3660000 
  O   -1.2830000   -3.0560000   -2.1200000 
  H   -1.4940000   -3.0980000   -1.1880000 
  H   -2.0850000   -3.3390000   -2.5600000 
  O    4.3830000   -5.0300000    1.8340000 
  H    4.0130000   -5.2190000    2.6960000 
  H    3.6230000   -4.8340000    1.2850000 
  O    2.1020000   -4.6170000    0.3220000 
  H    1.8520000   -4.0490000    1.0510000 
  H    1.3930000   -5.2590000    0.2640000 
  O    2.0680000   -3.3130000    2.7920000 
  H    1.9120000   -2.4030000    2.5410000 
  H    2.1740000   -3.2860000    3.7430000 
  O    5.6680000   -1.5070000   -2.5180000 
  H    4.8660000   -1.0240000   -2.7150000 
  H    5.8310000   -1.3330000   -1.5910000 
  O   -8.3180000   -1.8690000   -0.0920000 
  H   -7.3830000   -1.9090000    0.1080000 
  H   -8.6880000   -2.6400000    0.3360000 
  O   -5.5690000   -4.5210000    2.2160000 
  H   -6.2310000   -3.8350000    2.3110000 
  H   -5.1890000   -4.3690000    1.3510000 
