111 
   0.0000000000 
  O   -4.8870000   -1.5330000    0.0000000 
  C   -3.9630000   -0.7500000    0.0000000 
  N   -2.6280000   -1.0860000    0.0000000 
  C   -1.8410000   -0.0460000    0.0000000 
  S   -2.5990000    1.5730000    0.0000000 
  C   -4.2160000    0.7730000    0.0000000 
  C   -0.4290000   -0.1000000    0.0000000 
  S    0.4830000   -1.6180000    0.0000000 
  C    1.9690000   -0.6920000    0.0000000 
  C    3.2670000   -1.1300000    0.0000000 
  C    1.6220000    0.7010000    0.0000000 
  N    0.3190000    0.9860000    0.0000000 
  C    2.6720000    1.6620000    0.0000000 
  C    3.9620000    1.2460000    0.0000000 
  C    4.3510000   -0.1720000    0.0000000 
  O    5.5480000   -0.5080000    0.0000000 
  H   -4.7940000    1.0660000    0.8880000 
  H   -4.7930000    1.0340000   -0.8880000 
  H    3.5290000   -2.1820000    0.0000000 
  H    2.4040000    2.7140000    0.0000000 
  H    4.7790000    1.9610000    0.0000000 
  O   -0.1610000    4.7510000   -1.1010000 
  H   -0.0990000    5.6920000   -1.2680000 
  H    0.0030000    4.6630000   -0.1620000 
  O    3.8530000    2.1380000   -2.9320000 
  H    3.9060000    1.9400000   -1.9970000 
  H    2.9150000    2.2000000   -3.1110000 
  O   -3.6080000   -3.7930000   -1.3020000 
  H   -3.3210000   -3.0570000   -0.7630000 
  H   -4.3020000   -3.4310000   -1.8530000 
  O    2.2020000    6.1550000    0.6220000 
  H    2.8220000    5.4830000    0.9050000 
  H    2.7480000    6.9100000    0.4040000 
  O   -6.7920000    2.2830000    0.3340000 
  H   -7.4670000    2.9100000    0.0710000 
  H   -7.2570000    1.4490000    0.4110000 
  O   -3.8490000    0.1970000   -3.6650000 
  H   -3.7200000    0.3600000   -4.6000000 
  H   -4.7330000    0.5190000   -3.4850000 
  O    2.6330000   -1.4780000   -2.8000000 
  H    2.6670000   -1.3070000   -1.8590000 
  H    2.9220000   -2.3870000   -2.8890000 
  O    6.9110000    3.9240000   -2.7960000 
  H    6.5840000    3.1510000   -2.3360000 
  H    7.7520000    3.6480000   -3.1610000 
  O    3.5900000    1.3640000    2.8800000 
  H    3.8710000    1.3120000    1.9660000 
  H    3.2510000    2.2540000    2.9760000 
  O   -7.1390000   -3.0960000   -0.7660000 
  H   -7.6930000   -3.3820000   -0.0390000 
  H   -6.3800000   -2.6930000   -0.3450000 
  O   -7.1000000    3.2040000    3.1060000 
  H   -6.2810000    3.4930000    3.5070000 
  H   -6.8830000    3.0750000    2.1830000 
  O    8.0520000   -1.8830000   -0.7020000 
  H    7.2260000   -1.5810000   -0.3240000 
  H    8.5390000   -1.0800000   -0.8880000 
  O   -1.9950000   -3.4550000    1.6480000 
  H   -2.0970000   -2.7690000    0.9890000 
  H   -1.1530000   -3.2660000    2.0640000 
  O   -0.1180000   -1.8070000   -3.6020000 
  H    0.5450000   -1.3390000   -3.0950000 
  H   -0.8040000   -1.1580000   -3.7570000 
  O    2.0450000   -2.0430000    2.9320000 
  H    2.1930000   -1.2780000    2.3770000 
  H    1.9970000   -2.7780000    2.3200000 
  O    0.7860000    2.8220000   -2.9700000 
  H    0.8290000    3.4950000   -2.2910000 
  H    0.6930000    3.3120000   -3.7880000 
  O    2.4950000    3.7780000    2.8020000 
  H    1.7210000    4.0830000    2.3300000 
  H    2.6420000    4.4430000    3.4760000 
  O   -0.1720000    4.1240000    1.7380000 
  H    0.0880000    3.2250000    1.9390000 
  H   -1.1080000    4.0670000    1.5480000 
  O    2.7970000   -4.6210000    2.0500000 
  H    3.4560000   -4.6620000    2.7430000 
  H    2.0620000   -5.1330000    2.3870000 
  O   -4.0760000   -0.2930000    3.4570000 
  H   -4.4140000    0.5990000    3.5440000 
  H   -3.1260000   -0.1970000    3.5290000 
  O    3.8040000   -5.3800000   -0.4410000 
  H    3.4860000   -5.2730000    0.4560000 
  H    4.1960000   -4.5340000   -0.6580000 
  O    7.2040000    1.5220000   -0.4330000 
  H    8.1030000    1.2000000   -0.3600000 
  H    6.6600000    0.7650000   -0.2180000 
  O   -5.0920000    4.4620000    0.4640000 
  H   -5.6690000    5.0400000    0.9640000 
  H   -5.6040000    3.6630000    0.3390000 
  O    6.0340000    0.0210000    2.5360000 
  H    5.2960000    0.5540000    2.8330000 
  H    5.7690000   -0.2950000    1.6720000 
  O   -4.0040000    2.8120000    3.2070000 
  H   -3.5030000    2.9450000    4.0120000 
  H   -4.0520000    3.6800000    2.8080000 
  O   -8.0870000   -0.5020000   -1.6450000 
  H   -7.6760000   -1.3320000   -1.4040000 
  H   -8.4120000   -0.1450000   -0.8190000 
  O   -6.5900000    0.9300000   -3.3510000 
  H   -6.5130000    1.6510000   -2.7270000 
  H   -7.0320000    0.2360000   -2.8610000 
  O    5.0520000    5.1200000    0.0410000 
  H    5.9450000    5.3270000   -0.2340000 
  H    5.0180000    5.3810000    0.9620000 
  O    5.4340000   -0.7200000   -2.8210000 
  H    5.4060000   -0.5330000   -1.8820000 
  H    4.5160000   -0.7410000   -3.0890000 
  O    5.5640000   -3.2430000   -0.5880000 
  H    6.5130000   -3.3310000   -0.6720000 
  H    5.4350000   -2.3700000   -0.2170000 
