111 
   0.0000000000 
  O   -4.8870000   -1.5330000    0.0000000 
  C   -3.9630000   -0.7500000    0.0000000 
  N   -2.6280000   -1.0860000    0.0000000 
  C   -1.8410000   -0.0460000    0.0000000 
  S   -2.5990000    1.5730000    0.0000000 
  C   -4.2160000    0.7730000    0.0000000 
  C   -0.4290000   -0.1000000    0.0000000 
  S    0.4830000   -1.6180000    0.0000000 
  C    1.9690000   -0.6920000    0.0000000 
  C    3.2670000   -1.1300000    0.0000000 
  C    1.6220000    0.7010000    0.0000000 
  N    0.3190000    0.9860000    0.0000000 
  C    2.6720000    1.6620000    0.0000000 
  C    3.9620000    1.2460000    0.0000000 
  C    4.3510000   -0.1720000    0.0000000 
  O    5.5480000   -0.5080000    0.0000000 
  H   -4.7940000    1.0660000    0.8880000 
  H   -4.7930000    1.0340000   -0.8880000 
  H    3.5290000   -2.1820000    0.0000000 
  H    2.4040000    2.7140000    0.0000000 
  H    4.7790000    1.9610000    0.0000000 
  O   -6.1060000    3.3370000    0.5480000 
  H   -6.2290000    3.1520000    1.4790000 
  H   -5.6980000    4.2030000    0.5270000 
  O   -7.5210000    0.4520000   -0.2430000 
  H   -7.2510000   -0.1210000   -0.9610000 
  H   -7.9440000    1.1940000   -0.6750000 
  O    3.2260000    5.4940000    0.0760000 
  H    3.9890000    4.9210000   -0.0060000 
  H    2.7850000    5.4290000   -0.7710000 
  O   -5.6490000   -0.3440000   -3.0580000 
  H   -4.8210000   -0.7710000   -3.2750000 
  H   -6.3020000   -1.0410000   -3.1180000 
  O   -2.6640000    0.7960000   -3.3920000 
  H   -3.2730000    1.5330000   -3.3520000 
  H   -3.2210000    0.0330000   -3.5440000 
  O    0.8320000    4.9390000    1.5080000 
  H    0.8690000    5.5380000    2.2540000 
  H    1.6690000    5.0620000    1.0610000 
  O   -0.2170000   -4.6970000   -0.6700000 
  H   -0.2360000   -3.8060000   -0.3210000 
  H    0.5890000   -4.7350000   -1.1850000 
  O    5.2470000    2.1720000   -2.3730000 
  H    6.1620000    1.9230000   -2.2450000 
  H    4.7740000    1.7130000   -1.6780000 
  O    6.3210000   -0.7520000   -3.4170000 
  H    6.1930000   -0.4970000   -2.5040000 
  H    6.1700000   -1.6970000   -3.4260000 
  O   -7.6120000    2.0570000   -2.9180000 
  H   -6.8540000    1.4760000   -2.9760000 
  H   -8.1760000    1.7880000   -3.6440000 
  O    3.5160000    1.1980000    2.7990000 
  H    2.6260000    1.3850000    3.0970000 
  H    3.4460000    1.1550000    1.8450000 
  O    8.0590000    1.9460000    0.7670000 
  H    8.7390000    2.2720000    1.3570000 
  H    7.3730000    1.6190000    1.3490000 
  O    1.0860000    5.1770000   -1.5790000 
  H    0.1840000    5.4330000   -1.3830000 
  H    1.0150000    4.2810000   -1.9080000 
  O    5.7420000    4.1700000    0.1460000 
  H    6.6070000    3.7720000    0.2500000 
  H    5.8780000    4.8770000   -0.4840000 
  O    4.6790000   -2.7390000   -2.4020000 
  H    4.6050000   -1.9570000   -1.8550000 
  H    3.8660000   -2.7570000   -2.9070000 
  O   -5.8320000    3.7790000    3.3390000 
  H   -5.1400000    3.1340000    3.1920000 
  H   -6.0220000    3.7180000    4.2750000 
  O    6.1970000    0.5600000    2.3070000 
  H    6.0860000    0.2800000    1.3980000 
  H    5.3050000    0.6630000    2.6370000 
  O    3.5820000   -2.0070000    2.8810000 
  H    4.1360000   -2.5920000    2.3640000 
  H    3.3860000   -1.2780000    2.2930000 
  O    5.7710000   -2.8780000    1.3400000 
  H    6.4090000   -2.7290000    2.0370000 
  H    5.5310000   -2.0000000    1.0430000 
  O    8.4530000   -1.6370000   -0.2200000 
  H    7.4980000   -1.5870000   -0.2530000 
  H    8.7500000   -1.0030000   -0.8720000 
  O   -4.3970000    1.4240000    3.5510000 
  H   -3.5040000    1.0950000    3.4520000 
  H   -4.8820000    0.6920000    3.9320000 
  O    0.2870000   -3.9920000    2.7390000 
  H    0.9900000   -4.6040000    2.5220000 
  H    0.6950000   -3.1280000    2.6750000 
  O    2.9950000   -0.0740000   -3.1000000 
  H    3.3530000    0.0110000   -2.2160000 
  H    2.0560000    0.0830000   -2.9950000 
  O    4.1870000   -5.4180000    1.1270000 
  H    4.7090000   -4.6520000    1.3660000 
  H    4.8150000   -6.1390000    1.1040000 
  O   -7.0810000    1.2170000    2.4910000 
  H   -6.5920000    0.4690000    2.8330000 
  H   -7.4450000    0.9070000    1.6620000 
  O    0.0290000    0.3270000   -3.2050000 
  H   -0.8880000    0.3900000   -2.9350000 
  H    0.0420000   -0.3840000   -3.8460000 
  O   -2.1160000   -3.0880000   -2.1470000 
  H   -1.7080000   -3.8590000   -1.7530000 
  H   -2.5930000   -2.6740000   -1.4280000 
  O    2.7520000   -5.3060000   -1.1920000 
  H    3.2980000   -5.1300000   -0.4260000 
  H    2.7860000   -6.2570000   -1.2970000 
  O   -7.0950000   -3.4080000    0.3610000 
  H   -6.4370000   -3.3900000    1.0560000 
  H   -6.9430000   -2.6020000   -0.1330000 
  O    1.2620000    2.6060000    3.1220000 
  H    1.1550000    3.2110000    2.3880000 
  H    0.9030000    3.0770000    3.8750000 
