111 
   0.0000000000 
  O   -4.8870000   -1.5330000    0.0000000 
  C   -3.9630000   -0.7500000    0.0000000 
  N   -2.6280000   -1.0860000    0.0000000 
  C   -1.8410000   -0.0460000    0.0000000 
  S   -2.5990000    1.5730000    0.0000000 
  C   -4.2160000    0.7730000    0.0000000 
  C   -0.4290000   -0.1000000    0.0000000 
  S    0.4830000   -1.6180000    0.0000000 
  C    1.9690000   -0.6920000    0.0000000 
  C    3.2670000   -1.1300000    0.0000000 
  C    1.6220000    0.7010000    0.0000000 
  N    0.3190000    0.9860000    0.0000000 
  C    2.6720000    1.6620000    0.0000000 
  C    3.9620000    1.2460000    0.0000000 
  C    4.3510000   -0.1720000    0.0000000 
  O    5.5480000   -0.5080000    0.0000000 
  H   -4.7940000    1.0660000    0.8880000 
  H   -4.7930000    1.0340000   -0.8880000 
  H    3.5290000   -2.1820000    0.0000000 
  H    2.4040000    2.7140000    0.0000000 
  H    4.7790000    1.9610000    0.0000000 
  O    2.6540000   -3.5390000   -2.3920000 
  H    3.5950000   -3.3630000   -2.3690000 
  H    2.2660000   -2.7270000   -2.7180000 
  O   -8.4850000    1.4050000    0.6600000 
  H   -8.0800000    1.5850000    1.5080000 
  H   -9.3320000    1.8480000    0.6990000 
  O    6.8470000    0.1810000   -2.0410000 
  H    6.3280000    0.0150000   -1.2540000 
  H    7.7410000    0.2960000   -1.7190000 
  O    1.2470000    3.2570000   -2.6790000 
  H    2.0260000    2.7230000   -2.8350000 
  H    1.3070000    3.9620000   -3.3240000 
  O   -1.3770000   -2.9640000   -2.2000000 
  H   -1.8600000   -2.3460000   -1.6510000 
  H   -0.5700000   -2.5010000   -2.4280000 
  O   -5.6200000    0.9920000   -3.9100000 
  H   -5.2350000    1.6220000   -4.5200000 
  H   -6.3010000    1.4850000   -3.4530000 
  O    3.2410000   -1.9780000    2.6520000 
  H    3.2840000   -1.5910000    1.7780000 
  H    3.4290000   -1.2510000    3.2460000 
  O    1.2790000   -1.2220000   -3.2350000 
  H    0.6060000   -0.5720000   -3.4360000 
  H    1.9970000   -0.7150000   -2.8540000 
  O   -3.0780000    2.3160000    3.6530000 
  H   -2.7900000    1.4510000    3.3620000 
  H   -3.8730000    2.4860000    3.1490000 
  O    1.0830000    3.0690000    2.2250000 
  H    1.3400000    2.1470000    2.2280000 
  H    1.2650000    3.3720000    3.1150000 
  O    7.1900000    1.1570000    1.6470000 
  H    6.5980000    0.4490000    1.3930000 
  H    7.5630000    1.4670000    0.8210000 
  O    5.9440000   -5.2920000   -0.1980000 
  H    6.4100000   -5.7770000   -0.8790000 
  H    5.6080000   -4.5140000   -0.6440000 
  O   -6.8880000   -3.2790000   -0.4100000 
  H   -7.6470000   -2.6960000   -0.3890000 
  H   -6.1490000   -2.7200000   -0.1690000 
  O    5.9850000    4.1380000    0.6490000 
  H    6.8660000    3.9480000    0.9710000 
  H    6.1050000    4.3270000   -0.2810000 
  O   -0.3670000    0.8420000   -3.3650000 
  H   -1.1600000    0.7310000   -3.8900000 
  H   -0.2590000    1.7900000   -3.2920000 
  O    5.1480000   -2.7770000   -1.7260000 
  H    5.2950000   -1.9600000   -1.2500000 
  H    5.9720000   -2.9400000   -2.1840000 
  O    3.5130000    1.0140000    2.8590000 
  H    3.4580000    0.9880000    1.9040000 
  H    3.9670000    1.8340000    3.0520000 
  O   -4.8980000   -3.5880000    2.2720000 
  H   -4.9730000   -2.9370000    1.5740000 
  H   -4.0770000   -4.0430000    2.0890000 
  O    5.6650000    2.7360000    3.1790000 
  H    6.2360000    2.1240000    2.7150000 
  H    5.6610000    3.5220000    2.6330000 
  O    2.0750000   -4.3680000    2.2390000 
  H    2.5550000   -3.5420000    2.2930000 
  H    2.7500000   -5.0280000    2.0780000 
  O    3.8600000    6.1860000    0.2540000 
  H    4.3550000    6.9170000    0.6230000 
  H    4.4130000    5.4200000    0.4080000 
  O    3.1280000    1.0830000   -2.9880000 
  H    3.0840000    0.9780000   -2.0370000 
  H    4.0240000    0.8340000   -3.2150000 
  O    0.0350000    5.7940000    1.7560000 
  H    0.3610000    6.4760000    2.3430000 
  H    0.6200000    5.0510000    1.9030000 
  O    6.7220000   -1.9700000    1.8120000 
  H    6.1010000   -1.5570000    1.2120000 
  H    7.4870000   -2.1630000    1.2700000 
  O    5.0880000   -3.9370000    3.4500000 
  H    5.9630000   -3.6290000    3.2120000 
  H    4.4960000   -3.2690000    3.1030000 
  O   -5.4370000    3.0460000    2.6890000 
  H   -5.4780000    4.0010000    2.7530000 
  H   -6.2460000    2.7430000    3.1010000 
  O   -0.0940000    5.0340000   -1.0560000 
  H    0.1590000    4.2660000   -1.5690000 
  H    0.0080000    4.7570000   -0.1450000 
  O   -2.5510000   -0.3560000    3.3000000 
  H   -3.0730000   -1.0850000    3.6350000 
  H   -1.6440000   -0.6520000    3.3810000 
  O   -2.8350000   -4.1360000    0.4400000 
  H   -2.5870000   -3.2620000    0.1390000 
  H   -2.8830000   -4.6610000   -0.3590000 
  O   -6.1080000    3.5160000   -2.1070000 
  H   -5.7530000    4.1530000   -2.7280000 
  H   -5.8730000    3.8630000   -1.2470000 
