111 
   0.0000000000 
  O   -4.8870000   -1.5330000    0.0000000 
  C   -3.9630000   -0.7500000    0.0000000 
  N   -2.6280000   -1.0860000    0.0000000 
  C   -1.8410000   -0.0460000    0.0000000 
  S   -2.5990000    1.5730000    0.0000000 
  C   -4.2160000    0.7730000    0.0000000 
  C   -0.4290000   -0.1000000    0.0000000 
  S    0.4830000   -1.6180000    0.0000000 
  C    1.9690000   -0.6920000    0.0000000 
  C    3.2670000   -1.1300000    0.0000000 
  C    1.6220000    0.7010000    0.0000000 
  N    0.3190000    0.9860000    0.0000000 
  C    2.6720000    1.6620000    0.0000000 
  C    3.9620000    1.2460000    0.0000000 
  C    4.3510000   -0.1720000    0.0000000 
  O    5.5480000   -0.5080000    0.0000000 
  H   -4.7940000    1.0660000    0.8880000 
  H   -4.7930000    1.0340000   -0.8880000 
  H    3.5290000   -2.1820000    0.0000000 
  H    2.4040000    2.7140000    0.0000000 
  H    4.7790000    1.9610000    0.0000000 
  O    2.4820000    4.5990000    2.2170000 
  H    2.8810000    4.9180000    1.4080000 
  H    2.9210000    3.7660000    2.3890000 
  O   -1.5000000    3.9980000    2.0320000 
  H   -0.7590000    3.3910000    2.0190000 
  H   -1.6960000    4.1170000    2.9610000 
  O   -6.8020000   -0.5620000    3.0140000 
  H   -6.0300000   -0.9580000    2.6110000 
  H   -6.6520000   -0.6500000    3.9560000 
  O    4.1760000   -3.0480000    2.7440000 
  H    4.2460000   -3.6210000    3.5070000 
  H    3.2890000   -3.1930000    2.4140000 
  O   -4.1150000    1.2980000   -4.2530000 
  H   -4.7410000    0.6990000   -3.8450000 
  H   -4.4370000    2.1710000   -4.0290000 
  O    3.7920000   -5.8790000    0.2530000 
  H    3.7270000   -6.3630000    1.0770000 
  H    4.5130000   -5.2650000    0.3920000 
  O    0.7040000   -1.0340000    3.4870000 
  H    0.6510000   -1.9740000    3.3150000 
  H    1.5350000   -0.7650000    3.0950000 
  O    2.3730000   -2.4360000   -2.8010000 
  H    2.5140000   -1.5420000   -2.4900000 
  H    3.2360000   -2.8480000   -2.7490000 
  O   -5.8780000    3.0240000   -3.1220000 
  H   -5.6630000    3.8470000   -2.6830000 
  H   -6.6770000    3.2150000   -3.6130000 
  O    0.2310000    4.4910000   -1.5570000 
  H    0.8460000    4.1320000   -2.1970000 
  H   -0.6290000    4.2120000   -1.8690000 
  O    3.0580000    0.4270000   -2.6940000 
  H    3.1750000    0.6230000   -1.7640000 
  H    3.7900000   -0.1510000   -2.9110000 
  O   -5.6520000   -0.8230000   -2.8590000 
  H   -6.0280000   -0.6780000   -1.9910000 
  H   -6.2680000   -1.4140000   -3.2920000 
  O    5.8640000   -4.2430000    0.9870000 
  H    5.1260000   -3.9260000    1.5070000 
  H    6.4630000   -4.6260000    1.6270000 
  O    5.5000000    4.4580000   -1.9180000 
  H    5.4800000    3.5210000   -2.1120000 
  H    6.3730000    4.7400000   -2.1900000 
  O   -6.6150000    3.2700000    0.6800000 
  H   -7.2790000    3.8270000    0.2720000 
  H   -5.8380000    3.8260000    0.7370000 
  O   -1.2300000   -4.4810000   -1.4380000 
  H   -0.8280000   -3.6310000   -1.6140000 
  H   -1.8410000   -4.3140000   -0.7210000 
  O   -7.2990000    1.4820000   -1.0990000 
  H   -6.5280000    1.5580000   -1.6600000 
  H   -7.1720000    2.1490000   -0.4240000 
  O    7.0300000    0.7000000    1.8360000 
  H    6.6400000    0.0640000    1.2360000 
  H    7.0400000    1.5200000    1.3420000 
  O    3.7820000    2.1800000    2.7740000 
  H    4.0540000    2.0430000    1.8670000 
  H    3.7310000    1.2990000    3.1450000 
  O    6.4060000    1.3540000   -1.8950000 
  H    6.0110000    0.7390000   -1.2770000 
  H    6.0290000    1.1190000   -2.7430000 
  O   -5.5280000   -3.9390000   -2.1850000 
  H   -5.4630000   -3.4250000   -1.3810000 
  H   -4.8120000   -3.6180000   -2.7340000 
  O    3.1450000   -0.4290000    2.8100000 
  H    3.8220000   -1.1030000    2.8710000 
  H    2.8440000   -0.4730000    1.9020000 
  O   -3.5030000   -2.6060000   -3.1940000 
  H   -3.9060000   -1.7540000   -3.0280000 
  H   -2.5630000   -2.4470000   -3.1180000 
  O    7.8950000   -1.5420000   -0.4270000 
  H    6.9920000   -1.2850000   -0.2420000 
  H    8.0230000   -1.3230000   -1.3500000 
  O   -6.6060000    2.3200000    3.3760000 
  H   -6.4410000    1.3870000    3.5100000 
  H   -6.6930000    2.4150000    2.4280000 
  O    5.1040000   -1.2150000   -2.7880000 
  H    5.5060000   -2.0000000   -3.1600000 
  H    5.2060000   -1.3180000   -1.8420000 
  O   -0.3750000   -1.9780000   -3.1870000 
  H    0.5610000   -1.8830000   -3.0090000 
  H   -0.6700000   -1.0910000   -3.3960000 
  O   -2.7700000   -3.8050000    0.6000000 
  H   -3.6100000   -3.9410000    1.0380000 
  H   -2.7400000   -2.8650000    0.4230000 
  O    7.4670000    2.9710000    0.0290000 
  H    7.5450000    3.9250000    0.0470000 
  H    7.0550000    2.7800000   -0.8130000 
  O   -4.0440000   -0.0890000    3.3450000 
  H   -3.9190000   -0.9580000    3.7270000 
  H   -3.1600000    0.2680000    3.2670000 
