111 
   0.0000000000 
  O   -4.8870000   -1.5330000    0.0000000 
  C   -3.9630000   -0.7500000    0.0000000 
  N   -2.6280000   -1.0860000    0.0000000 
  C   -1.8410000   -0.0460000    0.0000000 
  S   -2.5990000    1.5730000    0.0000000 
  C   -4.2160000    0.7730000    0.0000000 
  C   -0.4290000   -0.1000000    0.0000000 
  S    0.4830000   -1.6180000    0.0000000 
  C    1.9690000   -0.6920000    0.0000000 
  C    3.2670000   -1.1300000    0.0000000 
  C    1.6220000    0.7010000    0.0000000 
  N    0.3190000    0.9860000    0.0000000 
  C    2.6720000    1.6620000    0.0000000 
  C    3.9620000    1.2460000    0.0000000 
  C    4.3510000   -0.1720000    0.0000000 
  O    5.5480000   -0.5080000    0.0000000 
  H   -4.7940000    1.0660000    0.8880000 
  H   -4.7930000    1.0340000   -0.8880000 
  H    3.5290000   -2.1820000    0.0000000 
  H    2.4040000    2.7140000    0.0000000 
  H    4.7790000    1.9610000    0.0000000 
  O    2.6460000    1.3620000    3.0570000 
  H    3.2210000    1.3470000    2.2920000 
  H    2.3170000    0.4660000    3.1270000 
  O    2.8980000   -1.3960000    2.8670000 
  H    2.7140000   -1.0830000    1.9820000 
  H    3.7860000   -1.7490000    2.8170000 
  O   -7.8810000   -3.1090000   -0.0640000 
  H   -7.8550000   -3.7110000   -0.8080000 
  H   -7.4390000   -2.3200000   -0.3780000 
  O   -6.9190000    2.2100000    0.7640000 
  H   -7.6690000    1.9820000    0.2140000 
  H   -6.9460000    1.5760000    1.4800000 
  O   -4.9390000   -4.3550000    1.2160000 
  H   -5.1800000   -3.5070000    0.8430000 
  H   -4.8730000   -4.1930000    2.1570000 
  O    0.9510000    3.6410000    2.8570000 
  H    1.5800000    2.9200000    2.8170000 
  H    0.0950000    3.2130000    2.8540000 
  O   -1.7640000   -2.7510000   -2.1090000 
  H   -2.1190000   -2.1730000   -1.4330000 
  H   -1.0090000   -2.2770000   -2.4570000 
  O   -3.3150000    0.6880000    3.0500000 
  H   -4.0060000    0.0250000    3.0490000 
  H   -3.5500000    1.2780000    3.7660000 
  O   -5.0870000    4.2280000    0.9030000 
  H   -5.7450000    3.5350000    0.9640000 
  H   -5.2650000    4.6540000    0.0640000 
  O    0.1530000   -1.2860000   -3.2040000 
  H    1.0620000   -1.0720000   -2.9930000 
  H    0.1230000   -1.2900000   -4.1600000 
  O   -5.5420000    2.4470000   -3.2080000 
  H   -4.9340000    2.4830000   -3.9460000 
  H   -6.2870000    1.9410000   -3.5350000 
  O    5.7490000    0.3430000   -2.5320000 
  H    6.2550000   -0.3240000   -2.9950000 
  H    5.6620000    0.0040000   -1.6410000 
  O    7.5600000    2.7370000   -2.1410000 
  H    7.6520000    2.6830000   -3.0920000 
  H    7.0500000    1.9630000   -1.9040000 
  O    1.2200000    4.4460000   -1.4150000 
  H    2.1490000    4.5720000   -1.2200000 
  H    1.1360000    3.5090000   -1.5880000 
  O   -7.0530000    0.5700000    2.9340000 
  H   -6.4970000   -0.2070000    2.8790000 
  H   -7.1170000    0.7540000    3.8710000 
  O    4.1880000    4.7070000   -0.6290000 
  H    5.0900000    5.0110000   -0.5260000 
  H    3.6620000    5.3530000   -0.1570000 
  O   -0.3460000   -4.6640000    0.9570000 
  H   -1.0100000   -5.2410000    0.5810000 
  H    0.4390000   -4.8280000    0.4330000 
  O   -2.4730000   -2.6730000    2.4470000 
  H   -1.5700000   -2.4750000    2.6960000 
  H   -2.4390000   -2.7940000    1.4980000 
  O   -1.4650000    2.8270000    3.3580000 
  H   -1.7170000    3.0130000    4.2630000 
  H   -1.9020000    2.0010000    3.1520000 
  O    5.7080000   -1.2950000    2.9880000 
  H    6.2800000   -2.0290000    3.2120000 
  H    5.8460000   -1.1620000    2.0500000 
  O    7.6110000   -2.0510000    0.1140000 
  H    8.3020000   -1.3940000    0.0300000 
  H    6.7970000   -1.5490000    0.0760000 
  O   -2.3570000    4.7970000    1.5330000 
  H   -3.2880000    4.7440000    1.3190000 
  H   -2.1500000    3.9440000    1.9140000 
  O    2.7140000   -0.2960000   -2.8160000 
  H    3.6040000   -0.0500000   -3.0670000 
  H    2.7700000   -0.4800000   -1.8790000 
  O    0.9500000    2.0310000   -2.7910000 
  H    1.7550000    1.5710000   -2.5570000 
  H    0.7670000    1.7540000   -3.6890000 
  O   -6.8850000   -2.2960000   -2.6690000 
  H   -6.0230000   -1.9960000   -2.9590000 
  H   -7.5050000   -1.7670000   -3.1710000 
  O    6.7600000    1.5480000    2.1460000 
  H    6.0670000    0.9830000    1.8050000 
  H    6.7730000    2.2980000    1.5520000 
  O    4.2560000    3.0050000   -2.8710000 
  H    4.5150000    2.1070000   -2.6610000 
  H    3.9640000    3.3720000   -2.0360000 
  O    2.8030000   -4.6960000    1.3630000 
  H    3.0960000   -4.2100000    2.1340000 
  H    3.0100000   -5.6090000    1.5610000 
  O    2.9030000   -4.7200000   -1.4820000 
  H    1.9930000   -4.5400000   -1.7170000 
  H    2.8970000   -4.7770000   -0.5260000 
  O    5.2980000   -2.7400000   -1.9400000 
  H    4.5050000   -3.2760000   -1.9070000 
  H    5.1730000   -2.0860000   -1.2520000 
