111 
   0.0000000000 
  O   -4.8870000   -1.5330000    0.0000000 
  C   -3.9630000   -0.7500000    0.0000000 
  N   -2.6280000   -1.0860000    0.0000000 
  C   -1.8410000   -0.0460000    0.0000000 
  S   -2.5990000    1.5730000    0.0000000 
  C   -4.2160000    0.7730000    0.0000000 
  C   -0.4290000   -0.1000000    0.0000000 
  S    0.4830000   -1.6180000    0.0000000 
  C    1.9690000   -0.6920000    0.0000000 
  C    3.2670000   -1.1300000    0.0000000 
  C    1.6220000    0.7010000    0.0000000 
  N    0.3190000    0.9860000    0.0000000 
  C    2.6720000    1.6620000    0.0000000 
  C    3.9620000    1.2460000    0.0000000 
  C    4.3510000   -0.1720000    0.0000000 
  O    5.5480000   -0.5080000    0.0000000 
  H   -4.7940000    1.0660000    0.8880000 
  H   -4.7930000    1.0340000   -0.8880000 
  H    3.5290000   -2.1820000    0.0000000 
  H    2.4040000    2.7140000    0.0000000 
  H    4.7790000    1.9610000    0.0000000 
  O    6.4350000   -3.1300000   -0.3480000 
  H    6.0350000   -2.2610000   -0.3840000 
  H    7.3290000   -2.9960000   -0.6610000 
  O   -6.9990000   -0.3850000   -3.6000000 
  H   -7.1140000    0.1910000   -2.8450000 
  H   -7.8890000   -0.6310000   -3.8530000 
  O   -2.2620000   -1.8860000   -3.2780000 
  H   -1.7540000   -2.4810000   -2.7270000 
  H   -3.0370000   -1.6790000   -2.7560000 
  O   -8.1240000    0.0400000    1.0400000 
  H   -8.7160000   -0.6970000    1.1870000 
  H   -7.2670000   -0.2800000    1.3230000 
  O    6.6940000    1.7330000    2.1650000 
  H    6.9460000    1.1560000    1.4430000 
  H    7.2440000    1.4540000    2.8970000 
  O    1.7270000    5.1050000    0.8720000 
  H    2.5410000    5.6080000    0.8890000 
  H    1.0800000    5.7090000    0.5090000 
  O   -3.1500000    0.2000000    3.5910000 
  H   -2.2720000    0.5720000    3.5120000 
  H   -3.2140000   -0.0720000    4.5070000 
  O    3.7770000   -5.6170000   -0.9160000 
  H    3.2570000   -5.1640000   -1.5790000 
  H    3.7210000   -5.0560000   -0.1420000 
  O    7.0840000   -0.6210000   -2.1740000 
  H    6.5930000   -0.4550000   -1.3690000 
  H    7.9570000   -0.8760000   -1.8740000 
  O   -7.5230000    1.2730000   -1.5400000 
  H   -7.7160000    0.9030000   -0.6790000 
  H   -7.0680000    2.0940000   -1.3520000 
  O    5.5370000   -2.7980000   -3.0210000 
  H    5.4580000   -3.2010000   -2.1560000 
  H    6.0110000   -1.9810000   -2.8630000 
  O   -5.5220000   -4.2120000   -2.0470000 
  H   -5.1960000   -3.3580000   -2.3320000 
  H   -5.3220000   -4.8010000   -2.7740000 
  O   -1.3580000    4.4500000    1.1070000 
  H   -2.0580000    4.6410000    0.4820000 
  H   -0.7440000    3.9010000    0.6190000 
  O    2.1070000   -0.4060000   -2.7350000 
  H    2.3700000   -0.3820000   -1.8150000 
  H    1.6130000    0.4040000   -2.8640000 
  O   -6.9330000   -2.8120000    1.2250000 
  H   -7.1350000   -3.5220000    0.6150000 
  H   -6.1810000   -2.3670000    0.8350000 
  O    3.2550000    1.3770000    3.0640000 
  H    3.1580000    1.3790000    2.1120000 
  H    4.2010000    1.3650000    3.2090000 
  O    3.0440000   -4.0960000    1.7600000 
  H    3.0780000   -3.2280000    2.1600000 
  H    2.5040000   -4.6150000    2.3560000 
  O   -5.9810000   -0.2340000    2.9170000 
  H   -5.1500000   -0.3490000    3.3780000 
  H   -6.6470000   -0.4910000    3.5550000 
  O    0.5850000   -5.1020000    0.1720000 
  H   -0.3140000   -4.8050000    0.3110000 
  H    1.0990000   -4.6220000    0.8210000 
  O    7.7360000    3.6210000    0.5200000 
  H    7.1920000    3.0820000    1.0950000 
  H    7.8470000    4.4440000    0.9960000 
  O    6.2940000    4.5590000   -1.8010000 
  H    6.7140000    4.1890000   -1.0240000 
  H    6.6560000    4.0560000   -2.5310000 
  O    3.6820000    2.6310000   -2.7420000 
  H    3.5170000    2.2470000   -1.8810000 
  H    4.3620000    2.0780000   -3.1250000 
  O    5.2620000   -0.4810000    3.0460000 
  H    5.9360000    0.1440000    2.7790000 
  H    4.8000000   -0.6970000    2.2350000 
  O    2.3030000   -1.3070000    2.7990000 
  H    2.5250000   -1.2750000    1.8680000 
  H    2.5620000   -0.4490000    3.1370000 
  O   -7.9220000    2.7070000    2.1800000 
  H   -7.7360000    1.7790000    2.0370000 
  H   -7.1270000    3.1580000    1.8950000 
  O    2.4350000   -3.1720000   -2.2070000 
  H    1.8180000   -2.8740000   -1.5400000 
  H    2.9220000   -2.3860000   -2.4540000 
  O    2.3740000    4.3060000    3.4480000 
  H    2.5690000    3.3940000    3.6630000 
  H    2.3070000    4.3180000    2.4930000 
  O   -2.1500000   -3.8500000    0.7080000 
  H   -2.3430000   -2.9280000    0.5390000 
  H   -3.0060000   -4.2790000    0.7020000 
  O   -3.9190000    3.0080000    3.7080000 
  H   -3.8950000    2.0960000    3.4160000 
  H   -3.2300000    3.0660000    4.3700000 
  O   -4.8480000   -1.8300000   -3.2460000 
  H   -4.4500000   -2.1500000   -4.0550000 
  H   -5.5980000   -1.3100000   -3.5380000 
