111 
   0.0000000000 
  O   -4.8870000   -1.5330000    0.0000000 
  C   -3.9630000   -0.7500000    0.0000000 
  N   -2.6280000   -1.0860000    0.0000000 
  C   -1.8410000   -0.0460000    0.0000000 
  S   -2.5990000    1.5730000    0.0000000 
  C   -4.2160000    0.7730000    0.0000000 
  C   -0.4290000   -0.1000000    0.0000000 
  S    0.4830000   -1.6180000    0.0000000 
  C    1.9690000   -0.6920000    0.0000000 
  C    3.2670000   -1.1300000    0.0000000 
  C    1.6220000    0.7010000    0.0000000 
  N    0.3190000    0.9860000    0.0000000 
  C    2.6720000    1.6620000    0.0000000 
  C    3.9620000    1.2460000    0.0000000 
  C    4.3510000   -0.1720000    0.0000000 
  O    5.5480000   -0.5080000    0.0000000 
  H   -4.7940000    1.0660000    0.8880000 
  H   -4.7930000    1.0340000   -0.8880000 
  H    3.5290000   -2.1820000    0.0000000 
  H    2.4040000    2.7140000    0.0000000 
  H    4.7790000    1.9610000    0.0000000 
  O    1.9880000   -0.8710000   -3.0910000 
  H    1.9100000   -1.7510000   -3.4600000 
  H    2.0700000   -1.0130000   -2.1480000 
  O   -2.5200000    5.1840000    0.6280000 
  H   -3.1050000    5.1830000   -0.1300000 
  H   -2.9300000    4.5810000    1.2480000 
  O    3.0360000   -3.6010000    2.2450000 
  H    3.9890000   -3.6160000    2.3310000 
  H    2.8120000   -2.6710000    2.2130000 
  O   -2.9090000    3.5690000    2.6980000 
  H   -2.7000000    2.6590000    2.9080000 
  H   -2.7570000    4.0440000    3.5150000 
  O   -0.7130000   -0.1740000   -3.3120000 
  H    0.2220000   -0.3630000   -3.2300000 
  H   -0.9450000   -0.4880000   -4.1860000 
  O    5.2480000    4.5140000    0.0750000 
  H    4.6910000    5.1060000    0.5800000 
  H    5.6840000    3.9730000    0.7340000 
  O   -2.3270000   -3.7970000    1.2790000 
  H   -2.0720000   -4.3900000    0.5720000 
  H   -2.6100000   -2.9990000    0.8320000 
  O    4.7690000   -4.3960000   -0.5420000 
  H    5.6800000   -4.4510000   -0.2550000 
  H    4.7440000   -3.6300000   -1.1160000 
  O   -4.4760000   -5.1520000   -1.6310000 
  H   -5.1480000   -4.7390000   -1.0890000 
  H   -3.7950000   -4.4850000   -1.7190000 
  O    2.1920000   -5.6470000    0.7680000 
  H    1.3820000   -5.4050000    1.2170000 
  H    2.8350000   -5.0070000    1.0720000 
  O   -2.2570000   -3.1630000   -1.9450000 
  H   -1.3630000   -3.4960000   -1.8570000 
  H   -2.2660000   -2.3610000   -1.4230000 
  O    3.5410000    4.7340000    2.3050000 
  H    3.3370000    3.8020000    2.3830000 
  H    2.6960000    5.1520000    2.1390000 
  O    4.9550000   -2.3070000   -2.4160000 
  H    5.4560000   -1.8430000   -1.7460000 
  H    4.6220000   -1.6160000   -2.9890000 
  O   -6.9990000   -0.4220000   -2.7670000 
  H   -7.0430000   -1.3710000   -2.6550000 
  H   -6.0670000   -0.2370000   -2.8870000 
  O   -4.6500000    0.4820000   -4.0710000 
  H   -4.3510000    1.3710000   -3.8800000 
  H   -4.9640000    0.5230000   -4.9750000 
  O    8.1530000   -1.5590000    1.4890000 
  H    7.4540000   -1.4260000    2.1290000 
  H    7.7710000   -1.2840000    0.6560000 
  O    3.4180000    1.7330000   -3.0960000 
  H    3.5780000    1.7290000   -2.1520000 
  H    3.1080000    0.8490000   -3.2910000 
  O    0.4330000   -4.1290000   -2.0160000 
  H    0.6920000   -3.7230000   -2.8440000 
  H    0.9990000   -4.8980000   -1.9390000 
  O    3.1810000    1.9640000    2.8760000 
  H    2.9120000    1.7650000    1.9800000 
  H    4.0560000    1.5840000    2.9550000 
  O    2.5720000   -0.8590000    2.8930000 
  H    3.0530000   -0.1940000    3.3860000 
  H    2.6830000   -0.6050000    1.9770000 
  O   -6.3980000   -3.0090000   -2.0850000 
  H   -7.0170000   -3.6620000   -1.7590000 
  H   -6.1360000   -2.5170000   -1.3070000 
  O    7.1740000    1.3660000    0.8390000 
  H    6.5130000    0.8250000    0.4070000 
  H    7.0900000    1.1520000    1.7680000 
  O   -0.4050000    4.0170000   -1.8730000 
  H    0.0240000    3.9370000   -2.7260000 
  H    0.0320000    3.3670000   -1.3230000 
  O   -4.8110000   -1.2470000    3.5310000 
  H   -5.4770000   -1.8830000    3.2710000 
  H   -4.6500000   -1.4330000    4.4560000 
  O   -5.9110000    3.3570000    0.5810000 
  H   -6.0660000    3.8780000    1.3690000 
  H   -5.2100000    3.8200000    0.1220000 
  O   -4.8410000   -4.6700000    1.7540000 
  H   -3.9730000   -4.5120000    1.3820000 
  H   -4.9130000   -4.0400000    2.4710000 
  O    5.4950000   -2.0330000    2.4720000 
  H    5.1690000   -1.2970000    2.9900000 
  H    5.4830000   -1.7150000    1.5700000 
  O    6.8860000    0.7720000   -2.0760000 
  H    6.4830000    0.3330000   -1.3270000 
  H    7.0490000    1.6650000   -1.7720000 
  O    7.2440000    3.3410000   -1.6860000 
  H    6.5660000    4.0000000   -1.5360000 
  H    7.6890000    3.2580000   -0.8430000 
  O   -2.4310000    0.9460000    3.8620000 
  H   -1.6050000    0.4770000    3.9770000 
  H   -3.0380000    0.2850000    3.5300000 
