111 
   0.0000000000 
  O   -4.8870000   -1.5330000    0.0000000 
  C   -3.9630000   -0.7500000    0.0000000 
  N   -2.6280000   -1.0860000    0.0000000 
  C   -1.8410000   -0.0460000    0.0000000 
  S   -2.5990000    1.5730000    0.0000000 
  C   -4.2160000    0.7730000    0.0000000 
  C   -0.4290000   -0.1000000    0.0000000 
  S    0.4830000   -1.6180000    0.0000000 
  C    1.9690000   -0.6920000    0.0000000 
  C    3.2670000   -1.1300000    0.0000000 
  C    1.6220000    0.7010000    0.0000000 
  N    0.3190000    0.9860000    0.0000000 
  C    2.6720000    1.6620000    0.0000000 
  C    3.9620000    1.2460000    0.0000000 
  C    4.3510000   -0.1720000    0.0000000 
  O    5.5480000   -0.5080000    0.0000000 
  H   -4.7940000    1.0660000    0.8880000 
  H   -4.7930000    1.0340000   -0.8880000 
  H    3.5290000   -2.1820000    0.0000000 
  H    2.4040000    2.7140000    0.0000000 
  H    4.7790000    1.9610000    0.0000000 
  O    3.1220000    1.8240000   -2.8230000 
  H    2.7630000    1.0800000   -3.3070000 
  H    3.1760000    1.5170000   -1.9180000 
  O    3.4570000    5.0360000   -0.3480000 
  H    4.3480000    5.2820000   -0.0980000 
  H    2.9260000    5.2450000    0.4210000 
  O    4.5170000    1.9800000    3.1260000 
  H    5.3540000    2.3600000    3.3930000 
  H    4.6450000    1.7350000    2.2100000 
  O   -8.0820000    3.3120000    0.1970000 
  H   -8.5590000    2.6630000    0.7150000 
  H   -7.1770000    3.0010000    0.1960000 
  O   -5.2270000    3.9840000    0.7580000 
  H   -5.3360000    4.6640000    0.0930000 
  H   -4.5850000    4.3460000    1.3680000 
  O   -3.0760000    2.3150000   -3.8080000 
  H   -3.3460000    1.3980000   -3.7550000 
  H   -2.2890000    2.3650000   -3.2650000 
  O   -0.1780000   -1.0410000   -3.4350000 
  H   -0.7210000   -1.7120000   -3.0220000 
  H   -0.7940000   -0.3500000   -3.6800000 
  O   -0.9310000   -4.7290000   -0.3060000 
  H   -1.0730000   -5.6000000    0.0650000 
  H    0.0210000   -4.6450000   -0.3630000 
  O    1.7440000   -4.4000000   -0.1510000 
  H    1.4740000   -3.6940000    0.4360000 
  H    2.5180000   -4.7770000    0.2670000 
  O    3.0240000   -0.3130000    2.6250000 
  H    3.4790000    0.5040000    2.8310000 
  H    3.1410000   -0.4210000    1.6810000 
  O    0.1100000    2.3640000   -2.7230000 
  H    1.0540000    2.3100000   -2.5730000 
  H    0.0120000    2.2780000   -3.6710000 
  O    5.8600000    4.8940000    0.9470000 
  H    5.4830000    5.2000000    1.7720000 
  H    6.7760000    5.1690000    0.9850000 
  O    0.5320000   -0.4900000    3.2750000 
  H    1.4450000   -0.4820000    2.9870000 
  H    0.2200000    0.3990000    3.1090000 
  O   -0.4750000    2.2300000    2.6820000 
  H   -0.7980000    2.9580000    2.1520000 
  H    0.4490000    2.4300000    2.8280000 
  O   -5.7830000   -1.0540000    2.9780000 
  H   -5.9720000   -0.1470000    3.2150000 
  H   -6.6320000   -1.4160000    2.7220000 
  O    7.3520000    0.3140000    1.8520000 
  H    7.5490000   -0.4950000    2.3240000 
  H    6.8460000    0.0310000    1.0900000 
  O    7.9740000   -0.7960000   -1.0700000 
  H    7.1080000   -0.6120000   -0.7070000 
  H    8.0850000   -0.1500000   -1.7670000 
  O   -2.1250000   -2.8800000   -2.0050000 
  H   -2.5250000   -2.3570000   -1.3110000 
  H   -1.8450000   -3.6840000   -1.5680000 
  O    5.1330000    3.6470000   -3.1910000 
  H    4.6190000    2.8450000   -3.2820000 
  H    5.5920000    3.5440000   -2.3570000 
  O    7.7560000   -2.2010000    2.7980000 
  H    6.9970000   -2.3070000    2.2240000 
  H    8.4750000   -2.6200000    2.3250000 
  O   -7.5450000    0.3860000   -0.8390000 
  H   -8.2030000    1.0140000   -1.1380000 
  H   -7.4140000   -0.1980000   -1.5860000 
  O   -2.9300000   -3.8830000    1.0970000 
  H   -3.1800000   -3.0840000    0.6320000 
  H   -2.0480000   -4.0780000    0.7820000 
  O    7.1090000    2.9680000   -0.7980000 
  H    6.5500000    3.5970000   -0.3420000 
  H    7.5820000    2.5170000   -0.0980000 
  O    3.4890000   -4.7030000    2.3340000 
  H    4.2510000   -5.2760000    2.2480000 
  H    3.8430000   -3.8830000    2.6790000 
  O    2.3440000    4.6260000   -2.6860000 
  H    2.8020000    5.0500000   -1.9610000 
  H    2.8350000    3.8190000   -2.8410000 
  O   -4.0180000   -0.5080000   -3.4370000 
  H   -4.9690000   -0.6130000   -3.4200000 
  H   -3.7060000   -1.2310000   -3.9810000 
  O    2.6710000   -1.1930000   -2.7740000 
  H    1.7290000   -1.3430000   -2.8500000 
  H    2.8370000   -1.1850000   -1.8310000 
  O    5.4270000   -1.1630000   -2.8310000 
  H    4.4990000   -1.1430000   -3.0650000 
  H    5.4350000   -1.3960000   -1.9030000 
  O   -6.4170000   -3.9040000    1.0940000 
  H   -5.8500000   -3.3040000    0.6100000 
  H   -7.0480000   -4.2150000    0.4460000 
  O    5.6310000   -2.7940000    1.1210000 
  H    5.4650000   -2.0760000    0.5100000 
  H    5.2160000   -2.5140000    1.9380000 
