111 
   0.0000000000 
  O   -4.8870000   -1.5330000    0.0000000 
  C   -3.9630000   -0.7500000    0.0000000 
  N   -2.6280000   -1.0860000    0.0000000 
  C   -1.8410000   -0.0460000    0.0000000 
  S   -2.5990000    1.5730000    0.0000000 
  C   -4.2160000    0.7730000    0.0000000 
  C   -0.4290000   -0.1000000    0.0000000 
  S    0.4830000   -1.6180000    0.0000000 
  C    1.9690000   -0.6920000    0.0000000 
  C    3.2670000   -1.1300000    0.0000000 
  C    1.6220000    0.7010000    0.0000000 
  N    0.3190000    0.9860000    0.0000000 
  C    2.6720000    1.6620000    0.0000000 
  C    3.9620000    1.2460000    0.0000000 
  C    4.3510000   -0.1720000    0.0000000 
  O    5.5480000   -0.5080000    0.0000000 
  H   -4.7940000    1.0660000    0.8880000 
  H   -4.7930000    1.0340000   -0.8880000 
  H    3.5290000   -2.1820000    0.0000000 
  H    2.4040000    2.7140000    0.0000000 
  H    4.7790000    1.9610000    0.0000000 
  O    0.3310000    0.3850000   -3.2400000 
  H    1.0120000   -0.1050000   -2.7770000 
  H    0.6780000    1.2740000   -3.3050000 
  O   -7.7160000   -1.7050000   -1.0950000 
  H   -8.6570000   -1.8670000   -1.1740000 
  H   -7.6500000   -0.7720000   -0.8910000 
  O   -5.8010000    3.0930000   -1.7770000 
  H   -5.1990000    3.2960000   -1.0600000 
  H   -5.2580000    3.1330000   -2.5640000 
  O    2.7140000    4.5420000   -1.3110000 
  H    1.8430000    4.7890000   -1.6230000 
  H    3.1800000    4.2600000   -2.0980000 
  O    6.0410000   -2.9830000   -1.0570000 
  H    6.8850000   -2.7980000   -0.6450000 
  H    5.5490000   -2.1660000   -0.9730000 
  O   -7.1710000   -4.0840000    0.3420000 
  H   -6.3310000   -3.9340000    0.7750000 
  H   -7.3410000   -3.2740000   -0.1390000 
  O   -6.3450000    2.8770000    2.2060000 
  H   -5.8850000    3.1830000    2.9880000 
  H   -6.0050000    3.4250000    1.4980000 
  O    8.2290000   -2.3150000    0.3180000 
  H    8.3920000   -1.4510000    0.6970000 
  H    9.0880000   -2.6110000    0.0170000 
  O    0.3960000    3.3200000    2.0760000 
  H    0.3670000    2.3770000    2.2360000 
  H   -0.3340000    3.4850000    1.4790000 
  O    6.8270000   -0.0190000    2.4770000 
  H    6.6380000   -0.8360000    2.9400000 
  H    6.3160000   -0.0770000    1.6700000 
  O    3.8530000   -4.2410000   -2.2840000 
  H    4.6070000   -3.9560000   -1.7670000 
  H    4.1450000   -4.1730000   -3.1930000 
  O    5.7920000   -0.0880000   -2.6960000 
  H    4.8700000    0.1300000   -2.8280000 
  H    5.9070000   -0.0810000   -1.7460000 
  O    4.0770000    2.3950000   -3.2250000 
  H    3.9900000    2.2460000   -2.2830000 
  H    3.1840000    2.5730000   -3.5220000 
  O   -4.5880000    4.5450000    0.3660000 
  H   -4.7630000    5.4860000    0.3590000 
  H   -3.7550000    4.4590000    0.8290000 
  O   -2.2570000    0.7160000   -3.0690000 
  H   -2.4300000   -0.0780000   -3.5750000 
  H   -1.3080000    0.7170000   -2.9430000 
  O    2.4610000   -1.1120000   -2.8520000 
  H    2.5570000   -1.9440000   -3.3160000 
  H    2.6580000   -1.3220000   -1.9390000 
  O   -7.6250000    0.6910000    2.4320000 
  H   -7.5510000    0.4890000    1.4990000 
  H   -7.4340000    1.6270000    2.4910000 
  O    7.5120000    1.2280000   -0.4370000 
  H    6.8510000    0.6890000   -0.0020000 
  H    7.3980000    2.0990000   -0.0570000 
  O   -7.4960000    1.0420000   -0.3340000 
  H   -8.3140000    1.4770000   -0.0930000 
  H   -7.0340000    1.6830000   -0.8740000 
  O   -2.5510000    1.6660000    3.6190000 
  H   -1.7920000    1.1260000    3.8400000 
  H   -3.3020000    1.0860000    3.7430000 
  O   -1.6690000   -2.9060000    2.1300000 
  H   -1.5730000   -2.4370000    1.3010000 
  H   -2.3610000   -2.4350000    2.5940000 
  O    4.4740000    1.5820000    2.7020000 
  H    4.0820000    1.4370000    1.8410000 
  H    5.0910000    0.8580000    2.8100000 
  O    6.8650000    3.5310000    0.8850000 
  H    6.7380000    3.7590000    1.8070000 
  H    6.4660000    4.2550000    0.4030000 
  O   -5.3150000   -1.0130000   -2.5960000 
  H   -5.7020000   -1.3040000   -1.7700000 
  H   -5.7160000   -1.5750000   -3.2590000 
  O    4.1850000    5.6550000    0.8730000 
  H    3.6710000    5.3120000    0.1420000 
  H    3.6640000    5.4520000    1.6490000 
  O    2.1070000   -1.0280000    2.9960000 
  H    2.8730000   -1.2830000    3.5100000 
  H    2.3920000   -1.1050000    2.0860000 
  O   -4.5860000   -4.0690000    2.8950000 
  H   -3.9000000   -4.4930000    2.3800000 
  H   -4.4320000   -3.1320000    2.7750000 
  O    6.4670000   -2.6980000    2.8070000 
  H    6.9210000   -3.4810000    3.1180000 
  H    6.4170000   -2.8100000    1.8580000 
  O   -2.3800000   -3.6320000   -1.3080000 
  H   -2.4210000   -4.2680000   -0.5950000 
  H   -2.5800000   -2.7930000   -0.8930000 
  O   -5.0870000    0.7910000    4.0230000 
  H   -5.0570000    1.2330000    4.8720000 
  H   -5.9450000    1.0180000    3.6650000 
