111 
   0.0000000000 
  O   -4.8870000   -1.5330000    0.0000000 
  C   -3.9630000   -0.7500000    0.0000000 
  N   -2.6280000   -1.0860000    0.0000000 
  C   -1.8410000   -0.0460000    0.0000000 
  S   -2.5990000    1.5730000    0.0000000 
  C   -4.2160000    0.7730000    0.0000000 
  C   -0.4290000   -0.1000000    0.0000000 
  S    0.4830000   -1.6180000    0.0000000 
  C    1.9690000   -0.6920000    0.0000000 
  C    3.2670000   -1.1300000    0.0000000 
  C    1.6220000    0.7010000    0.0000000 
  N    0.3190000    0.9860000    0.0000000 
  C    2.6720000    1.6620000    0.0000000 
  C    3.9620000    1.2460000    0.0000000 
  C    4.3510000   -0.1720000    0.0000000 
  O    5.5480000   -0.5080000    0.0000000 
  H   -4.7940000    1.0660000    0.8880000 
  H   -4.7930000    1.0340000   -0.8880000 
  H    3.5290000   -2.1820000    0.0000000 
  H    2.4040000    2.7140000    0.0000000 
  H    4.7790000    1.9610000    0.0000000 
  O    5.6260000    3.0350000    2.7750000 
  H    5.1180000    2.2290000    2.6790000 
  H    5.6090000    3.2180000    3.7140000 
  O   -2.2000000   -3.5240000    1.4200000 
  H   -2.4090000   -2.6280000    1.1560000 
  H   -1.3890000   -3.4440000    1.9220000 
  O    8.0600000   -0.0060000    0.8540000 
  H    8.2210000    0.7190000    1.4580000 
  H    7.1060000   -0.0860000    0.8250000 
  O   -6.8790000    2.7820000    0.8770000 
  H   -7.2260000    2.4080000    0.0680000 
  H   -7.6540000    3.0670000    1.3620000 
  O   -3.9680000    0.1680000    3.4150000 
  H   -4.1640000    0.5810000    4.2560000 
  H   -4.8180000   -0.1280000    3.0890000 
  O   -2.5310000   -3.8330000   -1.5210000 
  H   -3.1260000   -3.4070000   -2.1390000 
  H   -2.5460000   -3.2710000   -0.7470000 
  O    6.3590000    1.1480000   -2.2700000 
  H    5.4860000    1.5100000   -2.4220000 
  H    6.2530000    0.5780000   -1.5090000 
  O    2.4340000   -0.7900000   -2.8300000 
  H    2.7780000   -0.5640000   -1.9660000 
  H    1.7900000   -0.1070000   -3.0180000 
  O   -1.3690000    4.5350000    1.3160000 
  H   -0.5870000    4.6760000    0.7820000 
  H   -2.0850000    4.4790000    0.6840000 
  O    3.8810000    0.4000000    2.9550000 
  H    3.0330000    0.6400000    3.3280000 
  H    3.8230000    0.6660000    2.0370000 
  O   -3.7300000    4.4610000   -0.2520000 
  H   -3.5550000    5.2090000   -0.8230000 
  H   -3.9520000    3.7490000   -0.8520000 
  O   -3.4360000   -1.6560000   -3.4620000 
  H   -2.6280000   -1.1910000   -3.2450000 
  H   -3.9970000   -0.9890000   -3.8580000 
  O   -1.4800000   -0.6490000    3.5080000 
  H   -2.1700000   -0.0800000    3.1670000 
  H   -1.9480000   -1.3810000    3.9090000 
  O   -5.5040000   -0.1120000   -4.1060000 
  H   -5.4860000    0.2950000   -3.2400000 
  H   -6.3320000    0.1780000   -4.4900000 
  O    2.6860000   -2.6930000    2.7360000 
  H    2.4920000   -1.8150000    3.0630000 
  H    3.0360000   -2.5500000    1.8560000 
  O    8.6990000   -2.2030000   -0.5940000 
  H    8.6050000   -1.3160000   -0.2490000 
  H    7.8000000   -2.5120000   -0.7100000 
  O   -4.2880000    2.7230000   -2.6880000 
  H   -4.8320000    2.7200000   -3.4750000 
  H   -3.5910000    2.0950000   -2.8750000 
  O   -5.1250000    3.8750000    2.7710000 
  H   -4.3070000    4.0390000    2.3030000 
  H   -5.7600000    3.6790000    2.0820000 
  O    5.1310000   -4.7230000    1.5150000 
  H    6.0260000   -4.9860000    1.3010000 
  H    5.2000000   -3.7950000    1.7370000 
  O    5.8020000   -2.8990000   -1.1070000 
  H    5.3380000   -2.9300000   -1.9440000 
  H    5.6300000   -2.0200000   -0.7700000 
  O    1.9440000    4.7620000    1.4960000 
  H    2.8640000    4.7420000    1.2330000 
  H    1.9230000    4.2910000    2.3290000 
  O   -7.8240000   -2.0200000    0.0640000 
  H   -8.2070000   -2.7960000   -0.3450000 
  H   -7.1630000   -2.3660000    0.6630000 
  O    3.7340000    2.3040000   -2.6320000 
  H    3.6510000    1.8600000   -1.7870000 
  H    3.3430000    3.1660000   -2.4890000 
  O    4.9020000    5.1560000    1.1450000 
  H    4.6570000    5.5090000    2.0000000 
  H    5.5010000    4.4370000    1.3440000 
  O    2.6670000   -5.3030000   -1.2550000 
  H    2.8020000   -4.6940000   -1.9820000 
  H    1.7480000   -5.1890000   -1.0140000 
  O   -6.3310000   -0.7490000    2.4330000 
  H   -7.0460000   -0.3870000    2.9560000 
  H   -6.6990000   -0.8400000    1.5540000 
  O   -7.2950000    0.4890000   -0.9690000 
  H   -7.9120000    0.6030000   -1.6910000 
  H   -7.4130000   -0.4200000   -0.6930000 
  O    2.5980000    4.7070000   -2.1510000 
  H    1.7690000    4.9280000   -1.7270000 
  H    3.2630000    5.1430000   -1.6190000 
  O    5.5520000   -1.8500000    2.3400000 
  H    5.4930000   -1.5170000    1.4450000 
  H    4.9900000   -1.2680000    2.8510000 
  O    7.2680000    4.1180000   -1.1590000 
  H    7.9330000    3.9600000   -0.4890000 
  H    7.2520000    3.3120000   -1.6760000 
