111 
   0.0000000000 
  O   -4.8870000   -1.5330000    0.0000000 
  C   -3.9630000   -0.7500000    0.0000000 
  N   -2.6280000   -1.0860000    0.0000000 
  C   -1.8410000   -0.0460000    0.0000000 
  S   -2.5990000    1.5730000    0.0000000 
  C   -4.2160000    0.7730000    0.0000000 
  C   -0.4290000   -0.1000000    0.0000000 
  S    0.4830000   -1.6180000    0.0000000 
  C    1.9690000   -0.6920000    0.0000000 
  C    3.2670000   -1.1300000    0.0000000 
  C    1.6220000    0.7010000    0.0000000 
  N    0.3190000    0.9860000    0.0000000 
  C    2.6720000    1.6620000    0.0000000 
  C    3.9620000    1.2460000    0.0000000 
  C    4.3510000   -0.1720000    0.0000000 
  O    5.5480000   -0.5080000    0.0000000 
  H   -4.7940000    1.0660000    0.8880000 
  H   -4.7930000    1.0340000   -0.8880000 
  H    3.5290000   -2.1820000    0.0000000 
  H    2.4040000    2.7140000    0.0000000 
  H    4.7790000    1.9610000    0.0000000 
  O    3.1760000   -5.1840000    1.2420000 
  H    3.4150000   -5.4480000    0.3530000 
  H    3.9850000   -4.8330000    1.6130000 
  O   -6.9630000   -2.3640000    2.3240000 
  H   -6.1580000   -1.9590000    2.6440000 
  H   -7.6000000   -2.2210000    3.0240000 
  O    5.3370000   -1.3080000    2.6080000 
  H    6.2430000   -1.0360000    2.7580000 
  H    5.1560000   -1.0500000    1.7040000 
  O    4.6020000    1.6830000   -3.1170000 
  H    4.9750000    0.8150000   -3.2710000 
  H    4.1610000    1.6070000   -2.2700000 
  O    2.4230000    5.2300000   -1.4860000 
  H    3.0370000    5.3810000   -0.7670000 
  H    2.7830000    5.7310000   -2.2180000 
  O   -4.2340000    0.0200000   -3.4120000 
  H   -4.3550000    0.9590000   -3.5520000 
  H   -3.3080000   -0.1330000   -3.5990000 
  O    4.5470000    1.5460000    2.7270000 
  H    4.6190000    0.6600000    3.0810000 
  H    4.3010000    1.4190000    1.8100000 
  O   -2.3380000   -4.0350000    0.9620000 
  H   -2.3660000   -4.3900000    0.0730000 
  H   -2.4810000   -3.0950000    0.8490000 
  O   -3.8840000    2.6080000    3.1570000 
  H   -4.4570000    2.8520000    2.4310000 
  H   -3.0600000    3.0610000    2.9760000 
  O    7.8640000    0.6310000    0.7620000 
  H    7.9180000    1.1830000    1.5420000 
  H    6.9720000    0.2850000    0.7740000 
  O   -2.4900000   -2.4240000   -2.4350000 
  H   -2.5480000   -2.0660000   -1.5500000 
  H   -2.5450000   -3.3720000   -2.3150000 
  O    0.3940000    0.2010000   -3.0290000 
  H    1.3370000    0.0490000   -2.9630000 
  H    0.2720000    1.0950000   -2.7100000 
  O   -5.7790000    0.6130000    3.4560000 
  H   -5.2410000   -0.0720000    3.8530000 
  H   -5.4000000    1.4320000    3.7750000 
  O    6.2070000   -3.2060000   -0.0890000 
  H    5.9870000   -2.2760000   -0.1310000 
  H    6.8980000   -3.2590000    0.5720000 
  O    2.0490000    0.0560000    2.8980000 
  H    2.6600000   -0.2070000    2.2090000 
  H    2.2280000    0.9860000    3.0360000 
  O   -5.4420000    3.4620000    0.7010000 
  H   -6.0950000    3.8750000    1.2650000 
  H   -5.0130000    4.1930000    0.2560000 
  O   -6.6650000   -0.6640000   -2.5320000 
  H   -5.7970000   -0.4790000   -2.8910000 
  H   -6.9880000    0.1860000   -2.2340000 
  O   -7.4620000    1.7370000   -1.0470000 
  H   -7.1570000    2.6360000   -0.9300000 
  H   -7.4050000    1.3480000   -0.1740000 
  O    0.1720000    5.1750000    0.3980000 
  H   -0.3420000    5.0150000   -0.3930000 
  H    1.0670000    4.9350000    0.1560000 
  O    3.0330000   -1.0440000   -2.8470000 
  H    3.2000000   -1.9720000   -3.0100000 
  H    3.2670000   -0.9160000   -1.9270000 
  O   -0.9170000    1.1280000    3.4520000 
  H   -0.0010000    1.1100000    3.1750000 
  H   -1.2710000    1.9250000    3.0550000 
  O    5.1420000   -4.1410000    2.6180000 
  H    6.0600000   -4.0610000    2.3600000 
  H    4.8390000   -3.2380000    2.7090000 
  O   -5.0740000   -4.1140000   -0.7040000 
  H   -5.0610000   -3.1590000   -0.6540000 
  H   -5.9600000   -4.3270000   -1.0000000 
  O   -7.5390000    0.0900000    1.4530000 
  H   -7.5290000   -0.8170000    1.7600000 
  H   -7.0260000    0.5690000    2.1040000 
  O    7.5150000   -0.4190000   -1.8820000 
  H    8.0880000   -0.4420000   -1.1160000 
  H    6.6290000   -0.4410000   -1.5210000 
  O    1.3150000    2.7570000    3.0120000 
  H    1.8060000    3.0650000    3.7730000 
  H    1.7360000    3.1820000    2.2650000 
  O   -7.6030000   -2.7630000   -0.6540000 
  H   -7.9720000   -2.3010000    0.0990000 
  H   -7.2110000   -2.0740000   -1.1900000 
  O    6.7630000    3.2430000    2.2830000 
  H    6.2720000    2.4270000    2.3770000 
  H    6.1370000    3.9290000    2.5160000 
  O    0.7030000    3.0400000   -2.5280000 
  H    1.0620000    3.4220000   -1.7270000 
  H    1.3060000    3.3170000   -3.2170000 
  O    3.2740000    5.0360000    1.2550000 
  H    4.1040000    5.4970000    1.3800000 
  H    2.7310000    5.3170000    1.9910000 
