111 
   0.0000000000 
  O   -4.8870000   -1.5330000    0.0000000 
  C   -3.9630000   -0.7500000    0.0000000 
  N   -2.6280000   -1.0860000    0.0000000 
  C   -1.8410000   -0.0460000    0.0000000 
  S   -2.5990000    1.5730000    0.0000000 
  C   -4.2160000    0.7730000    0.0000000 
  C   -0.4290000   -0.1000000    0.0000000 
  S    0.4830000   -1.6180000    0.0000000 
  C    1.9690000   -0.6920000    0.0000000 
  C    3.2670000   -1.1300000    0.0000000 
  C    1.6220000    0.7010000    0.0000000 
  N    0.3190000    0.9860000    0.0000000 
  C    2.6720000    1.6620000    0.0000000 
  C    3.9620000    1.2460000    0.0000000 
  C    4.3510000   -0.1720000    0.0000000 
  O    5.5480000   -0.5080000    0.0000000 
  H   -4.7940000    1.0660000    0.8880000 
  H   -4.7930000    1.0340000   -0.8880000 
  H    3.5290000   -2.1820000    0.0000000 
  H    2.4040000    2.7140000    0.0000000 
  H    4.7790000    1.9610000    0.0000000 
  O   -7.1180000   -3.1940000   -0.5220000 
  H   -6.6370000   -2.3660000   -0.5220000 
  H   -6.8130000   -3.6480000   -1.3070000 
  O   -1.7770000   -0.3030000    3.2690000 
  H   -2.7220000   -0.2910000    3.1170000 
  H   -1.6590000    0.1860000    4.0830000 
  O    0.6280000    3.8660000    2.3920000 
  H    0.5040000    3.8850000    1.4430000 
  H    1.3000000    4.5260000    2.5600000 
  O    0.0760000    4.9410000   -0.1400000 
  H    0.3420000    5.7890000    0.2170000 
  H   -0.7430000    4.7380000    0.3120000 
  O    1.1840000   -4.9060000    1.9830000 
  H    0.8020000   -4.0420000    2.1380000 
  H    1.7460000   -5.0600000    2.7430000 
  O   -4.4070000    0.0460000    3.1400000 
  H   -5.3260000   -0.2220000    3.1330000 
  H   -4.4230000    0.9490000    3.4570000 
  O   -7.2800000    2.4390000    1.7500000 
  H   -7.3360000    2.0180000    0.8920000 
  H   -8.0980000    2.2030000    2.1870000 
  O    6.0140000   -2.5510000    1.4750000 
  H    5.3040000   -3.1270000    1.7610000 
  H    5.5700000   -1.8130000    1.0560000 
  O    3.9080000   -0.4590000    2.9440000 
  H    3.4530000   -1.2440000    3.2470000 
  H    4.0670000   -0.6180000    2.0140000 
  O   -7.7370000    1.1370000   -0.5830000 
  H   -8.4920000    0.6830000   -0.9570000 
  H   -7.1440000    1.2660000   -1.3230000 
  O    0.0560000   -0.6160000   -3.5900000 
  H    0.7590000   -0.9930000   -3.0610000 
  H    0.3720000   -0.6790000   -4.4910000 
  O    3.4510000    1.0250000   -3.1410000 
  H    4.2370000    0.7640000   -2.6620000 
  H    2.8610000    1.3640000   -2.4680000 
  O   -2.4520000   -2.4970000   -3.1770000 
  H   -2.9320000   -1.7670000   -3.5680000 
  H   -2.2060000   -2.1840000   -2.3070000 
  O    3.9050000    2.8190000    2.3930000 
  H    3.7950000    2.1350000    1.7320000 
  H    4.0640000    2.3420000    3.2070000 
  O   -5.6540000    3.1880000    4.0430000 
  H   -5.8020000    2.9570000    3.1260000 
  H   -6.5100000    3.0820000    4.4580000 
  O   -5.4350000   -3.7830000    2.1730000 
  H   -5.7420000   -3.7840000    1.2660000 
  H   -5.8900000   -3.0460000    2.5800000 
  O   -5.7950000    1.6090000   -3.3450000 
  H   -5.8910000    2.5560000   -3.2450000 
  H   -6.5330000    1.3490000   -3.8960000 
  O   -1.9420000   -3.9260000   -0.1210000 
  H   -2.2350000   -3.0530000   -0.3830000 
  H   -1.9980000   -3.9200000    0.8350000 
  O    6.8150000    1.5280000   -1.2940000 
  H    6.1910000    0.8860000   -0.9560000 
  H    7.6720000    1.1920000   -1.0310000 
  O   -4.0680000    4.4130000   -1.6810000 
  H   -3.8490000    4.8680000   -0.8670000 
  H   -3.6810000    3.5430000   -1.5790000 
  O    2.3230000   -1.7750000   -2.7310000 
  H    2.4490000   -2.6140000   -2.2870000 
  H    2.7160000   -1.1300000   -2.1430000 
  O    5.4280000    4.6300000    0.5560000 
  H    5.5930000    5.3030000    1.2160000 
  H    5.0970000    3.8830000    1.0530000 
  O    6.6910000    1.0120000    1.9790000 
  H    6.1900000    0.5530000    1.3050000 
  H    6.8430000    1.8840000    1.6130000 
  O    4.1350000    4.1620000   -1.7830000 
  H    4.7270000    3.4890000   -2.1170000 
  H    4.3380000    4.2190000   -0.8490000 
  O    7.5980000   -1.1680000    3.2050000 
  H    7.0190000   -1.6910000    2.6500000 
  H    7.3600000   -0.2610000    3.0130000 
  O    1.3750000    0.8020000    3.2300000 
  H    2.0550000    0.9690000    2.5770000 
  H    0.7130000    1.4730000    3.0650000 
  O    4.0650000   -4.0700000    2.4740000 
  H    3.8190000   -4.9880000    2.3590000 
  H    3.4730000   -3.7460000    3.1530000 
  O    9.4480000   -1.9000000    0.7100000 
  H    8.6420000   -1.4020000    0.5730000 
  H   10.0240000   -1.2980000    1.1810000 
  O   -3.5290000   -0.0500000   -3.3060000 
  H   -4.2000000    0.6190000   -3.4460000 
  H   -2.7170000    0.3590000   -3.6070000 
  O    5.9340000   -2.3090000   -1.8490000 
  H    5.7470000   -1.8400000   -1.0360000 
  H    5.7290000   -1.6810000   -2.5420000 
