111 
   0.0000000000 
  O   -4.8870000   -1.5330000    0.0000000 
  C   -3.9630000   -0.7500000    0.0000000 
  N   -2.6280000   -1.0860000    0.0000000 
  C   -1.8410000   -0.0460000    0.0000000 
  S   -2.5990000    1.5730000    0.0000000 
  C   -4.2160000    0.7730000    0.0000000 
  C   -0.4290000   -0.1000000    0.0000000 
  S    0.4830000   -1.6180000    0.0000000 
  C    1.9690000   -0.6920000    0.0000000 
  C    3.2670000   -1.1300000    0.0000000 
  C    1.6220000    0.7010000    0.0000000 
  N    0.3190000    0.9860000    0.0000000 
  C    2.6720000    1.6620000    0.0000000 
  C    3.9620000    1.2460000    0.0000000 
  C    4.3510000   -0.1720000    0.0000000 
  O    5.5480000   -0.5080000    0.0000000 
  H   -4.7940000    1.0660000    0.8880000 
  H   -4.7930000    1.0340000   -0.8880000 
  H    3.5290000   -2.1820000    0.0000000 
  H    2.4040000    2.7140000    0.0000000 
  H    4.7790000    1.9610000    0.0000000 
  O   -5.0580000   -4.2270000    1.6230000 
  H   -5.4240000   -3.6030000    2.2500000 
  H   -4.1900000   -3.8800000    1.4180000 
  O   -2.6580000   -2.6530000    2.2290000 
  H   -2.0820000   -3.4040000    2.0860000 
  H   -2.5730000   -2.1300000    1.4320000 
  O    3.3490000    0.2290000   -2.9640000 
  H    2.4650000    0.2110000   -3.3320000 
  H    3.2180000    0.4180000   -2.0350000 
  O   -6.1740000    3.4590000    2.3420000 
  H   -5.8280000    2.8190000    2.9630000 
  H   -5.3980000    3.9010000    1.9970000 
  O    4.9050000    0.3340000    2.8270000 
  H    5.7850000    0.7090000    2.8100000 
  H    4.7860000   -0.0390000    1.9530000 
  O   -3.7430000    1.9110000    3.4050000 
  H   -4.4290000    1.6320000    4.0110000 
  H   -3.2750000    2.6020000    3.8740000 
  O   -3.1730000   -3.0040000   -2.2910000 
  H   -3.2700000   -3.8930000   -1.9500000 
  H   -2.9970000   -2.4680000   -1.5180000 
  O   -3.3230000    3.8280000   -2.8190000 
  H   -3.5050000    2.8940000   -2.9170000 
  H   -3.9850000    4.1390000   -2.2010000 
  O   -0.9050000   -1.3870000   -3.1740000 
  H   -1.6540000   -1.8890000   -2.8530000 
  H   -0.3250000   -2.0430000   -3.5610000 
  O   -8.0960000   -0.9800000    0.6810000 
  H   -7.5460000   -0.7510000   -0.0680000 
  H   -8.9190000   -1.2760000    0.2920000 
  O    6.0450000   -3.1930000    1.9050000 
  H    5.5680000   -3.9830000    1.6520000 
  H    5.8790000   -2.5750000    1.1920000 
  O    1.7510000    4.2840000    2.3930000 
  H    1.3470000    4.9620000    1.8520000 
  H    2.3670000    4.7580000    2.9530000 
  O    2.5040000    1.4140000    3.1620000 
  H    2.3590000    2.1590000    2.5770000 
  H    3.2640000    0.9650000    2.7940000 
  O    1.9230000   -4.4880000    2.0470000 
  H    1.6240000   -4.3500000    1.1480000 
  H    1.1430000   -4.7810000    2.5170000 
  O    5.0260000    5.2340000    1.6440000 
  H    4.9890000    4.6980000    2.4360000 
  H    5.5330000    4.7090000    1.0230000 
  O   -7.4760000    2.7650000   -0.3760000 
  H   -7.4530000    2.4010000    0.5090000 
  H   -8.3220000    3.2090000   -0.4310000 
  O    3.5380000   -2.7730000   -2.5150000 
  H    3.4740000   -1.8390000   -2.7170000 
  H    4.4000000   -2.8730000   -2.1120000 
  O   -7.1200000   -0.8530000   -2.1780000 
  H   -6.5540000   -1.3650000   -2.7560000 
  H   -7.7990000   -0.5020000   -2.7550000 
  O   -3.1110000    0.4770000   -3.4170000 
  H   -3.8990000    0.0710000   -3.7770000 
  H   -2.4210000   -0.1720000   -3.5570000 
  O    8.1370000    0.1110000    0.3160000 
  H    8.5330000   -0.3450000   -0.4270000 
  H    7.1950000   -0.0140000    0.2000000 
  O   -5.2640000    4.0830000   -0.9300000 
  H   -6.0580000    3.6300000   -0.6450000 
  H   -4.8690000    4.4060000   -0.1210000 
  O    2.3000000   -1.7340000    2.8150000 
  H    2.6020000   -1.5110000    1.9350000 
  H    1.6800000   -2.4510000    2.6810000 
  O    4.5120000   -5.0300000    0.3520000 
  H    3.9770000   -5.6180000    0.8860000 
  H    3.9570000   -4.8130000   -0.3970000 
  O   -0.7010000    2.5830000    3.0360000 
  H    0.0930000    2.8960000    2.6020000 
  H   -1.1980000    3.3770000    3.2300000 
  O   -6.8000000   -2.3520000    3.1160000 
  H   -7.0000000   -2.0400000    2.2340000 
  H   -7.5830000   -2.1460000    3.6270000 
  O   -6.8960000   -3.4630000   -0.8190000 
  H   -6.7000000   -2.5700000   -1.1020000 
  H   -6.2710000   -3.6340000   -0.1150000 
  O    6.4490000    1.4130000   -1.9620000 
  H    6.8910000    1.2040000   -1.1390000 
  H    5.5500000    1.1100000   -1.8350000 
  O    5.2460000    4.0850000   -2.1670000 
  H    4.7510000    3.5130000   -2.7530000 
  H    6.0540000    3.6040000   -1.9870000 
  O    0.4600000    4.4530000   -1.1740000 
  H    0.4710000    3.8910000   -1.9490000 
  H    0.4200000    3.8440000   -0.4370000 
  O    6.2020000   -2.5630000   -1.5370000 
  H    6.8880000   -2.3810000   -2.1800000 
  H    6.0310000   -1.7160000   -1.1240000 
