111 
   0.0000000000 
  O   -4.8870000   -1.5330000    0.0000000 
  C   -3.9630000   -0.7500000    0.0000000 
  N   -2.6280000   -1.0860000    0.0000000 
  C   -1.8410000   -0.0460000    0.0000000 
  S   -2.5990000    1.5730000    0.0000000 
  C   -4.2160000    0.7730000    0.0000000 
  C   -0.4290000   -0.1000000    0.0000000 
  S    0.4830000   -1.6180000    0.0000000 
  C    1.9690000   -0.6920000    0.0000000 
  C    3.2670000   -1.1300000    0.0000000 
  C    1.6220000    0.7010000    0.0000000 
  N    0.3190000    0.9860000    0.0000000 
  C    2.6720000    1.6620000    0.0000000 
  C    3.9620000    1.2460000    0.0000000 
  C    4.3510000   -0.1720000    0.0000000 
  O    5.5480000   -0.5080000    0.0000000 
  H   -4.7940000    1.0660000    0.8880000 
  H   -4.7930000    1.0340000   -0.8880000 
  H    3.5290000   -2.1820000    0.0000000 
  H    2.4040000    2.7140000    0.0000000 
  H    4.7790000    1.9610000    0.0000000 
  O   -6.9450000    0.7860000   -1.7260000 
  H   -7.2350000    1.6870000   -1.8730000 
  H   -7.5930000    0.2490000   -2.1800000 
  O   -2.9370000    2.8960000   -3.3540000 
  H   -2.6070000    3.1580000   -4.2140000 
  H   -2.6800000    1.9780000   -3.2680000 
  O    0.1290000    1.5780000    3.3310000 
  H    0.2030000    0.9770000    4.0720000 
  H   -0.7950000    1.5420000    3.0840000 
  O    8.3380000   -1.1340000    1.4820000 
  H    7.4920000   -1.3350000    1.0820000 
  H    8.7100000   -1.9890000    1.6980000 
  O    6.2240000   -2.8620000   -1.0040000 
  H    5.6900000   -2.0770000   -0.8860000 
  H    6.5570000   -3.0600000   -0.1290000 
  O    2.9130000   -0.1200000   -2.6230000 
  H    2.8490000   -0.2670000   -1.6800000 
  H    2.6050000   -0.9380000   -3.0150000 
  O    1.9640000   -4.3980000   -1.5020000 
  H    2.2780000   -5.2220000   -1.8760000 
  H    2.2550000   -4.4230000   -0.5900000 
  O    7.5620000    1.5680000   -0.0680000 
  H    8.3860000    1.1180000    0.1220000 
  H    6.8850000    0.9190000    0.1250000 
  O   -6.9350000   -0.9490000    1.4970000 
  H   -7.6670000   -1.3990000    1.0760000 
  H   -6.1580000   -1.2790000    1.0460000 
  O   -2.3810000   -3.4040000   -1.8860000 
  H   -2.2760000   -2.6820000   -1.2660000 
  H   -1.6730000   -4.0110000   -1.6690000 
  O   -2.8910000   -0.1610000    3.1330000 
  H   -3.5020000    0.1370000    3.8070000 
  H   -2.9570000   -1.1150000    3.1540000 
  O    2.0630000   -2.4190000   -3.5290000 
  H    2.0800000   -2.8500000   -2.6750000 
  H    2.5770000   -2.9920000   -4.0980000 
  O   -6.1610000    1.1110000    3.9790000 
  H   -5.4260000    1.2260000    4.5810000 
  H   -6.9360000    1.1420000    4.5380000 
  O   -0.3470000   -1.0260000   -3.5320000 
  H    0.5140000   -1.3970000   -3.3390000 
  H   -0.3480000   -0.9050000   -4.4820000 
  O    3.1800000   -2.1030000    2.7950000 
  H    3.0100000   -1.4630000    2.1040000 
  H    3.6620000   -1.6130000    3.4620000 
  O    1.2160000    3.8470000   -2.0810000 
  H    1.4040000    4.1210000   -1.1830000 
  H    2.0180000    3.4130000   -2.3720000 
  O    2.7350000    1.0930000    2.8040000 
  H    2.9260000    1.1110000    1.8660000 
  H    1.8470000    1.4440000    2.8740000 
  O    3.7930000    2.8010000   -2.6590000 
  H    3.7000000    2.4080000   -3.5260000 
  H    3.5820000    2.0940000   -2.0500000 
  O   -5.3740000    1.4270000   -4.5430000 
  H   -4.7490000    1.8880000   -3.9840000 
  H   -5.4950000    0.5770000   -4.1190000 
  O   -2.7240000    0.2190000   -3.4350000 
  H   -1.8960000   -0.2400000   -3.2950000 
  H   -3.3590000   -0.4770000   -3.6010000 
  O    5.8240000   -0.3500000   -2.6450000 
  H    6.0040000   -0.3450000   -1.7050000 
  H    4.9140000   -0.0620000   -2.7170000 
  O   -4.7980000    3.1610000    2.6470000 
  H   -4.5620000    3.4170000    3.5380000 
  H   -5.5140000    2.5360000    2.7580000 
  O    5.6360000    4.2560000   -1.1510000 
  H    6.3370000    4.2310000   -1.8020000 
  H    4.8660000    3.9290000   -1.6150000 
  O    5.0760000   -0.1190000    2.7350000 
  H    4.5160000    0.6400000    2.8970000 
  H    5.0360000   -0.2500000    1.7880000 
  O    0.5970000    5.1380000    0.2480000 
  H    0.0930000    5.9470000    0.3370000 
  H    0.6450000    4.7860000    1.1370000 
  O   -5.2240000   -1.2860000   -3.3440000 
  H   -5.6050000   -1.1690000   -2.4740000 
  H   -5.1420000   -2.2350000   -3.4450000 
  O   -5.7900000    4.7540000    0.5920000 
  H   -6.7020000    4.4730000    0.6660000 
  H   -5.3000000    4.1230000    1.1180000 
  O   -2.7050000   -3.5220000    1.5660000 
  H   -3.5050000   -3.5460000    2.0920000 
  H   -2.7980000   -2.7380000    1.0250000 
  O    2.3420000   -4.2820000    1.3530000 
  H    1.3900000   -4.3850000    1.3510000 
  H    2.4940000   -3.4660000    1.8300000 
  O   -2.5700000    4.7380000   -0.9430000 
  H   -1.9570000    4.1590000   -1.3960000 
  H   -3.4280000    4.5030000   -1.2950000 
