111 
   0.0000000000 
  O   -4.8870000   -1.5330000    0.0000000 
  C   -3.9630000   -0.7500000    0.0000000 
  N   -2.6280000   -1.0860000    0.0000000 
  C   -1.8410000   -0.0460000    0.0000000 
  S   -2.5990000    1.5730000    0.0000000 
  C   -4.2160000    0.7730000    0.0000000 
  C   -0.4290000   -0.1000000    0.0000000 
  S    0.4830000   -1.6180000    0.0000000 
  C    1.9690000   -0.6920000    0.0000000 
  C    3.2670000   -1.1300000    0.0000000 
  C    1.6220000    0.7010000    0.0000000 
  N    0.3190000    0.9860000    0.0000000 
  C    2.6720000    1.6620000    0.0000000 
  C    3.9620000    1.2460000    0.0000000 
  C    4.3510000   -0.1720000    0.0000000 
  O    5.5480000   -0.5080000    0.0000000 
  H   -4.7940000    1.0660000    0.8880000 
  H   -4.7930000    1.0340000   -0.8880000 
  H    3.5290000   -2.1820000    0.0000000 
  H    2.4040000    2.7140000    0.0000000 
  H    4.7790000    1.9610000    0.0000000 
  O   -7.5530000    1.8840000   -1.5800000 
  H   -8.0570000    1.3680000   -0.9500000 
  H   -8.0310000    2.7100000   -1.6510000 
  O    8.0200000    3.1130000   -2.0670000 
  H    7.5130000    3.7360000   -2.5880000 
  H    7.4580000    2.3410000   -2.0040000 
  O    4.6730000   -4.3130000    0.2000000 
  H    4.8500000   -4.8110000   -0.5980000 
  H    3.9390000   -4.7690000    0.6100000 
  O    2.8950000    0.6400000   -2.8490000 
  H    3.0350000    0.7390000   -1.9070000 
  H    3.6990000    0.2330000   -3.1710000 
  O   -4.5780000    4.2220000   -2.1260000 
  H   -4.3770000    4.9940000   -1.5970000 
  H   -3.7480000    3.7480000   -2.1830000 
  O    4.9460000    3.5040000    2.8660000 
  H    4.9840000    2.8520000    3.5650000 
  H    4.2200000    3.2190000    2.3100000 
  O    5.7840000   -2.3780000    1.9820000 
  H    5.3160000   -3.1800000    1.7490000 
  H    5.4830000   -1.7300000    1.3440000 
  O    2.4150000   -2.3170000   -2.9220000 
  H    3.2920000   -2.5590000   -3.2180000 
  H    2.5650000   -1.7440000   -2.1700000 
  O    3.3480000   -0.5330000    2.8070000 
  H    3.4430000   -0.1440000    1.9380000 
  H    4.2210000   -0.4710000    3.1950000 
  O    7.5570000    3.6460000    2.1900000 
  H    6.6080000    3.7710000    2.2100000 
  H    7.6960000    2.9690000    1.5280000 
  O   -3.5070000    1.1310000   -3.6760000 
  H   -3.1970000    1.8700000   -4.1990000 
  H   -2.8030000    0.4840000   -3.7350000 
  O   -6.3060000    1.1860000   -3.8540000 
  H   -6.7210000    1.5490000   -3.0720000 
  H   -5.3700000    1.3370000   -3.7200000 
  O   -5.1100000   -4.8050000    1.9250000 
  H   -4.2850000   -4.3270000    1.8350000 
  H   -4.8480000   -5.7220000    2.0050000 
  O   -0.4680000    0.6390000   -3.1490000 
  H    0.3870000    0.9910000   -2.9020000 
  H   -0.4560000    0.6300000   -4.1060000 
  O    5.9500000   -2.1320000   -2.1770000 
  H    5.7060000   -1.4230000   -1.5830000 
  H    6.8950000   -2.0350000   -2.2920000 
  O    1.7570000   -2.9980000    2.8680000 
  H    2.4550000   -2.4540000    2.5020000 
  H    1.1270000   -2.3720000    3.2240000 
  O    2.0010000   -4.9440000    0.7420000 
  H    1.1030000   -5.0010000    0.4150000 
  H    2.0150000   -4.1420000    1.2660000 
  O    6.3410000    1.0060000   -2.1320000 
  H    5.7380000    0.5850000   -1.5190000 
  H    5.9760000    0.8180000   -2.9960000 
  O    4.7070000    4.1360000   -0.9220000 
  H    4.2640000    3.3090000   -0.7350000 
  H    5.0080000    4.0480000   -1.8270000 
  O    0.2630000   -4.4990000   -2.0070000 
  H    1.0100000   -3.9710000   -2.2880000 
  H   -0.4920000   -3.9190000   -2.1030000 
  O   -5.3730000   -3.0760000   -2.4820000 
  H   -4.7260000   -3.7720000   -2.3690000 
  H   -5.2710000   -2.5240000   -1.7070000 
  O    1.2770000    2.9660000   -3.0670000 
  H    1.5240000    3.2830000   -3.9350000 
  H    1.8910000    2.2530000   -2.8890000 
  O    7.3980000    1.3490000    0.7240000 
  H    7.5880000    0.8290000    1.5040000 
  H    6.6870000    0.8780000    0.2890000 
  O    7.4240000   -0.4140000    2.7010000 
  H    7.1270000   -1.3040000    2.5110000 
  H    7.8540000   -0.4810000    3.5540000 
  O   -0.6890000    4.3620000   -0.8120000 
  H    0.1950000    4.0870000   -1.0520000 
  H   -0.8400000    3.9660000    0.0460000 
  O   -6.8700000   -2.6940000    2.6090000 
  H   -7.4950000   -3.3150000    2.9830000 
  H   -6.4180000   -3.1890000    1.9260000 
  O   -2.7670000   -3.3440000    2.0930000 
  H   -2.7240000   -2.7550000    1.3400000 
  H   -2.7830000   -2.7630000    2.8530000 
  O   -2.0020000   -3.0640000   -2.1140000 
  H   -2.2210000   -2.5230000   -2.8730000 
  H   -2.1500000   -2.4930000   -1.3610000 
  O    8.3810000   -1.5980000   -0.1160000 
  H    9.1090000   -1.2700000    0.4120000 
  H    7.6010000   -1.4010000    0.4020000 
  O    2.3860000    4.6860000    2.7650000 
  H    1.5140000    4.6330000    2.3750000 
  H    2.8310000    5.3710000    2.2660000 
